gem5 Simulator System.  http://gem5.org
gem5 is copyrighted software; use the --copyright option for details.

gem5 compiled Jun  2 2019 14:47:48
gem5 started Jun 11 2019 00:53:23
gem5 executing on 5e24d8f23dc5, pid 1925
command line: /workspace/gem5-aladdin/build/X86/gem5.opt --stats-db-file=stats.db --outdir=/workspace/gem5-aladdin/sweeps/machsuite/bfs_bulk/1/outputs /workspace/gem5-aladdin/configs/aladdin/aladdin_se.py --num-cpus=0 --mem-size=4GB --enable-stats-dump --enable_prefetchers --prefetcher-type=stride --mem-type=DDR3_1600_8x8 --sys-clock=333MHz --cpu-type=DerivO3CPU --caches --cacheline_size=32 --accel_cfg_file=/workspace/gem5-aladdin/sweeps/machsuite/bfs_bulk/1/gem5.cfg -c bfs-bulk-gem5-accel -o ''

Global frequency set at 1000000000000 ticks per second
-------------------------------
      Setting ScratchPad       
-------------------------------
-------------------------------
      Generating DDDG          
-------------------------------
-------------------------------
Num of Nodes: 62791
Num of Edges: 135460
Num of Reg Edges: 68139
Num of MEM Edges: 4531
Num of Control Edges: 62790
-------------------------------
-------------------------------
    Initializing BaseDatapath      
-------------------------------
 Top level: bfs
=============================================
      Optimizing...            /workspace/gem5-aladdin/sweeps/machsuite/bfs_bulk/1/outputs/bfs_bulk
=============================================
-------------------------------
  Remove PHI and Convert Nodes 
-------------------------------
  Removing 45453 edges.
  Adding 37644 new edges.
  Removing 10058 isolated nodes.
-------------------------------
  Remove Induction Dependence  
-------------------------------
-------------------------------
       Init Base Address       
-------------------------------
-------------------------------
     Init DMA Base Address     
-------------------------------
-------------------------------
        Mem to Reg Conv        
-------------------------------
-------------------------------
      ScratchPad Partition     
-------------------------------
-------------------------------
         Loop Flatten          
-------------------------------
  Removing 4329 isolated nodes.
  Removing 0 isolated nodes.
-------------------------------
         Loop Unrolling        
-------------------------------
  Adding 91293 new edges.
  Removing 0 isolated nodes.
  Removing 0 isolated nodes.
-------------------------------
          Load Buffer          
-------------------------------
  Adding 0 new edges.
  Removing 0 edges.
  Removing 0 isolated nodes.
-------------------------------
          Store Buffer         
-------------------------------
  Adding 0 new edges.
  Removing 0 isolated nodes.
  Removing 0 isolated nodes.
-------------------------------
    Remove Repeated Stores     
-------------------------------
-------------------------------
      Memory Ambiguation       
-------------------------------
  Adding 231 new edges.
-------------------------------
     Tree Height Reduction     
-------------------------------
  Removing 0 edges.
  Adding 0 new edges.
  Removing 0 isolated nodes.
-------------------------------
  Fuse register loads/stores   
-------------------------------
  Removing 0 edges.
  Adding 0 new edges.
  Removing 0 isolated nodes.
-------------------------------
   Fuse consecutive branches   
-------------------------------
  Removing 4329 edges.
  Adding 4329 new edges.
  Removing 0 isolated nodes.
-------------------------------
      Per Loop Pipelining      
-------------------------------
-------------------------------
         Loop Pipelining        
-------------------------------
=============================================
      Scheduling...            /workspace/gem5-aladdin/sweeps/machsuite/bfs_bulk/1/outputs/bfs_bulk
=============================================
  Total connected nodes: 46167
  Total edges: 183786
=============================================
**** REAL SIMULATION ****
===============================
        Aladdin Results        
===============================
Running : /workspace/gem5-aladdin/sweeps/machsuite/bfs_bulk/1/outputs/bfs_bulk
Top level function: bfs
Cycle : 47396 cycles
Avg Power: 2.91138 mW
Idle FU Cycles: 47392 cycles
Avg FU Power: 0.766306 mW
Avg FU Dynamic Power: 0.0202471 mW
Avg FU leakage Power: 0.746059 mW
Avg MEM Power: 2.14508 mW
Avg MEM Dynamic Power: 0.852309 mW
Avg MEM Leakage Power: 1.29277 mW
Total Area: 362785 uM^2
FU Area: 60343.2 uM^2
MEM Area: 302442 uM^2
Num of Bit-wise Operators (32-bit): 1
Num of Registers (32-bit): 315
===============================
        Aladdin Results        
===============================
-------------------------------
      Generating DDDG          
-------------------------------
-------------------------------
Reached end of trace.
-------------------------------
Exiting @ tick 142330188 because Aladdin called exit()
