
---------- Begin Simulation Statistics ----------
sim_seconds                                  0.000001                       # Number of seconds simulated
sim_ticks                                      701000                       # Number of ticks simulated
final_tick                                     701000                       # Number of ticks from beginning of simulation (restored from checkpoints and never reset)
sim_freq                                 1000000000000                       # Frequency of simulated ticks
host_tick_rate                                7372990                       # Simulator tick rate (ticks/s)
host_mem_usage                                4882044                       # Number of bytes of host memory used
host_seconds                                     0.10                       # Real time elapsed on the host
system.voltage_domain.voltage                       1                       # Voltage in Volts
system.clk_domain.clock                          5000                       # Clock period in ticks
system.mem_ctrls.pwrStateResidencyTicks::UNDEFINED       701000                       # Cumulative time (in ticks) in various power states
system.mem_ctrls.priorityMinLatency      0.000000000000                       # per QoS priority minimum request to response latency (s)
system.mem_ctrls.priorityMaxLatency      0.000000000000                       # per QoS priority maximum request to response latency (s)
system.mem_ctrls.numReadWriteTurnArounds            0                       # Number of turnarounds from READ to WRITE
system.mem_ctrls.numWriteReadTurnArounds            0                       # Number of turnarounds from WRITE to READ
system.mem_ctrls.numStayReadState                   0                       # Number of times bus staying in READ state
system.mem_ctrls.numStayWriteState                  0                       # Number of times bus staying in WRITE state
system.mem_ctrls.readReqs                           0                       # Number of read requests accepted
system.mem_ctrls.writeReqs                          0                       # Number of write requests accepted
system.mem_ctrls.readBursts                         0                       # Number of DRAM read bursts, including those serviced by the write queue
system.mem_ctrls.writeBursts                        0                       # Number of DRAM write bursts, including those merged in the write queue
system.mem_ctrls.bytesReadDRAM                      0                       # Total number of bytes read from DRAM
system.mem_ctrls.bytesReadWrQ                       0                       # Total number of bytes read from write queue
system.mem_ctrls.bytesWritten                       0                       # Total number of bytes written to DRAM
system.mem_ctrls.bytesReadSys                       0                       # Total read bytes from the system interface side
system.mem_ctrls.bytesWrittenSys                    0                       # Total written bytes from the system interface side
system.mem_ctrls.servicedByWrQ                      0                       # Number of DRAM read bursts serviced by the write queue
system.mem_ctrls.mergedWrBursts                     0                       # Number of DRAM write bursts merged with an existing one
system.mem_ctrls.neitherReadNorWriteReqs            0                       # Number of requests that are neither read nor write
system.mem_ctrls.perBankRdBursts::0                 0                       # Per bank write bursts
system.mem_ctrls.perBankRdBursts::1                 0                       # Per bank write bursts
system.mem_ctrls.perBankRdBursts::2                 0                       # Per bank write bursts
system.mem_ctrls.perBankRdBursts::3                 0                       # Per bank write bursts
system.mem_ctrls.perBankRdBursts::4                 0                       # Per bank write bursts
system.mem_ctrls.perBankRdBursts::5                 0                       # Per bank write bursts
system.mem_ctrls.perBankRdBursts::6                 0                       # Per bank write bursts
system.mem_ctrls.perBankRdBursts::7                 0                       # Per bank write bursts
system.mem_ctrls.perBankRdBursts::8                 0                       # Per bank write bursts
system.mem_ctrls.perBankRdBursts::9                 0                       # Per bank write bursts
system.mem_ctrls.perBankRdBursts::10                0                       # Per bank write bursts
system.mem_ctrls.perBankRdBursts::11                0                       # Per bank write bursts
system.mem_ctrls.perBankRdBursts::12                0                       # Per bank write bursts
system.mem_ctrls.perBankRdBursts::13                0                       # Per bank write bursts
system.mem_ctrls.perBankRdBursts::14                0                       # Per bank write bursts
system.mem_ctrls.perBankRdBursts::15                0                       # Per bank write bursts
system.mem_ctrls.perBankWrBursts::0                 0                       # Per bank write bursts
system.mem_ctrls.perBankWrBursts::1                 0                       # Per bank write bursts
system.mem_ctrls.perBankWrBursts::2                 0                       # Per bank write bursts
system.mem_ctrls.perBankWrBursts::3                 0                       # Per bank write bursts
system.mem_ctrls.perBankWrBursts::4                 0                       # Per bank write bursts
system.mem_ctrls.perBankWrBursts::5                 0                       # Per bank write bursts
system.mem_ctrls.perBankWrBursts::6                 0                       # Per bank write bursts
system.mem_ctrls.perBankWrBursts::7                 0                       # Per bank write bursts
system.mem_ctrls.perBankWrBursts::8                 0                       # Per bank write bursts
system.mem_ctrls.perBankWrBursts::9                 0                       # Per bank write bursts
system.mem_ctrls.perBankWrBursts::10                0                       # Per bank write bursts
system.mem_ctrls.perBankWrBursts::11                0                       # Per bank write bursts
system.mem_ctrls.perBankWrBursts::12                0                       # Per bank write bursts
system.mem_ctrls.perBankWrBursts::13                0                       # Per bank write bursts
system.mem_ctrls.perBankWrBursts::14                0                       # Per bank write bursts
system.mem_ctrls.perBankWrBursts::15                0                       # Per bank write bursts
system.mem_ctrls.numRdRetry                         0                       # Number of times read queue was full causing retry
system.mem_ctrls.numWrRetry                         0                       # Number of times write queue was full causing retry
system.mem_ctrls.totGap                             0                       # Total gap between requests
system.mem_ctrls.readPktSize::0                     0                       # Read request sizes (log2)
system.mem_ctrls.readPktSize::1                     0                       # Read request sizes (log2)
system.mem_ctrls.readPktSize::2                     0                       # Read request sizes (log2)
system.mem_ctrls.readPktSize::3                     0                       # Read request sizes (log2)
system.mem_ctrls.readPktSize::4                     0                       # Read request sizes (log2)
system.mem_ctrls.readPktSize::5                     0                       # Read request sizes (log2)
system.mem_ctrls.readPktSize::6                     0                       # Read request sizes (log2)
system.mem_ctrls.writePktSize::0                    0                       # Write request sizes (log2)
system.mem_ctrls.writePktSize::1                    0                       # Write request sizes (log2)
system.mem_ctrls.writePktSize::2                    0                       # Write request sizes (log2)
system.mem_ctrls.writePktSize::3                    0                       # Write request sizes (log2)
system.mem_ctrls.writePktSize::4                    0                       # Write request sizes (log2)
system.mem_ctrls.writePktSize::5                    0                       # Write request sizes (log2)
system.mem_ctrls.writePktSize::6                    0                       # Write request sizes (log2)
system.mem_ctrls.rdQLenPdf::0                       0                       # What read queue length does an incoming req see
system.mem_ctrls.rdQLenPdf::1                       0                       # What read queue length does an incoming req see
system.mem_ctrls.rdQLenPdf::2                       0                       # What read queue length does an incoming req see
system.mem_ctrls.rdQLenPdf::3                       0                       # What read queue length does an incoming req see
system.mem_ctrls.rdQLenPdf::4                       0                       # What read queue length does an incoming req see
system.mem_ctrls.rdQLenPdf::5                       0                       # What read queue length does an incoming req see
system.mem_ctrls.rdQLenPdf::6                       0                       # What read queue length does an incoming req see
system.mem_ctrls.rdQLenPdf::7                       0                       # What read queue length does an incoming req see
system.mem_ctrls.rdQLenPdf::8                       0                       # What read queue length does an incoming req see
system.mem_ctrls.rdQLenPdf::9                       0                       # What read queue length does an incoming req see
system.mem_ctrls.rdQLenPdf::10                      0                       # What read queue length does an incoming req see
system.mem_ctrls.rdQLenPdf::11                      0                       # What read queue length does an incoming req see
system.mem_ctrls.rdQLenPdf::12                      0                       # What read queue length does an incoming req see
system.mem_ctrls.rdQLenPdf::13                      0                       # What read queue length does an incoming req see
system.mem_ctrls.rdQLenPdf::14                      0                       # What read queue length does an incoming req see
system.mem_ctrls.rdQLenPdf::15                      0                       # What read queue length does an incoming req see
system.mem_ctrls.rdQLenPdf::16                      0                       # What read queue length does an incoming req see
system.mem_ctrls.rdQLenPdf::17                      0                       # What read queue length does an incoming req see
system.mem_ctrls.rdQLenPdf::18                      0                       # What read queue length does an incoming req see
system.mem_ctrls.rdQLenPdf::19                      0                       # What read queue length does an incoming req see
system.mem_ctrls.rdQLenPdf::20                      0                       # What read queue length does an incoming req see
system.mem_ctrls.rdQLenPdf::21                      0                       # What read queue length does an incoming req see
system.mem_ctrls.rdQLenPdf::22                      0                       # What read queue length does an incoming req see
system.mem_ctrls.rdQLenPdf::23                      0                       # What read queue length does an incoming req see
system.mem_ctrls.rdQLenPdf::24                      0                       # What read queue length does an incoming req see
system.mem_ctrls.rdQLenPdf::25                      0                       # What read queue length does an incoming req see
system.mem_ctrls.rdQLenPdf::26                      0                       # What read queue length does an incoming req see
system.mem_ctrls.rdQLenPdf::27                      0                       # What read queue length does an incoming req see
system.mem_ctrls.rdQLenPdf::28                      0                       # What read queue length does an incoming req see
system.mem_ctrls.rdQLenPdf::29                      0                       # What read queue length does an incoming req see
system.mem_ctrls.rdQLenPdf::30                      0                       # What read queue length does an incoming req see
system.mem_ctrls.rdQLenPdf::31                      0                       # What read queue length does an incoming req see
system.mem_ctrls.wrQLenPdf::0                       0                       # What write queue length does an incoming req see
system.mem_ctrls.wrQLenPdf::1                       0                       # What write queue length does an incoming req see
system.mem_ctrls.wrQLenPdf::2                       0                       # What write queue length does an incoming req see
system.mem_ctrls.wrQLenPdf::3                       0                       # What write queue length does an incoming req see
system.mem_ctrls.wrQLenPdf::4                       0                       # What write queue length does an incoming req see
system.mem_ctrls.wrQLenPdf::5                       0                       # What write queue length does an incoming req see
system.mem_ctrls.wrQLenPdf::6                       0                       # What write queue length does an incoming req see
system.mem_ctrls.wrQLenPdf::7                       0                       # What write queue length does an incoming req see
system.mem_ctrls.wrQLenPdf::8                       0                       # What write queue length does an incoming req see
system.mem_ctrls.wrQLenPdf::9                       0                       # What write queue length does an incoming req see
system.mem_ctrls.wrQLenPdf::10                      0                       # What write queue length does an incoming req see
system.mem_ctrls.wrQLenPdf::11                      0                       # What write queue length does an incoming req see
system.mem_ctrls.wrQLenPdf::12                      0                       # What write queue length does an incoming req see
system.mem_ctrls.wrQLenPdf::13                      0                       # What write queue length does an incoming req see
system.mem_ctrls.wrQLenPdf::14                      0                       # What write queue length does an incoming req see
system.mem_ctrls.wrQLenPdf::15                      0                       # What write queue length does an incoming req see
system.mem_ctrls.wrQLenPdf::16                      0                       # What write queue length does an incoming req see
system.mem_ctrls.wrQLenPdf::17                      0                       # What write queue length does an incoming req see
system.mem_ctrls.wrQLenPdf::18                      0                       # What write queue length does an incoming req see
system.mem_ctrls.wrQLenPdf::19                      0                       # What write queue length does an incoming req see
system.mem_ctrls.wrQLenPdf::20                      0                       # What write queue length does an incoming req see
system.mem_ctrls.wrQLenPdf::21                      0                       # What write queue length does an incoming req see
system.mem_ctrls.wrQLenPdf::22                      0                       # What write queue length does an incoming req see
system.mem_ctrls.wrQLenPdf::23                      0                       # What write queue length does an incoming req see
system.mem_ctrls.wrQLenPdf::24                      0                       # What write queue length does an incoming req see
system.mem_ctrls.wrQLenPdf::25                      0                       # What write queue length does an incoming req see
system.mem_ctrls.wrQLenPdf::26                      0                       # What write queue length does an incoming req see
system.mem_ctrls.wrQLenPdf::27                      0                       # What write queue length does an incoming req see
system.mem_ctrls.wrQLenPdf::28                      0                       # What write queue length does an incoming req see
system.mem_ctrls.wrQLenPdf::29                      0                       # What write queue length does an incoming req see
system.mem_ctrls.wrQLenPdf::30                      0                       # What write queue length does an incoming req see
system.mem_ctrls.wrQLenPdf::31                      0                       # What write queue length does an incoming req see
system.mem_ctrls.wrQLenPdf::32                      0                       # What write queue length does an incoming req see
system.mem_ctrls.wrQLenPdf::33                      0                       # What write queue length does an incoming req see
system.mem_ctrls.wrQLenPdf::34                      0                       # What write queue length does an incoming req see
system.mem_ctrls.wrQLenPdf::35                      0                       # What write queue length does an incoming req see
system.mem_ctrls.wrQLenPdf::36                      0                       # What write queue length does an incoming req see
system.mem_ctrls.wrQLenPdf::37                      0                       # What write queue length does an incoming req see
system.mem_ctrls.wrQLenPdf::38                      0                       # What write queue length does an incoming req see
system.mem_ctrls.wrQLenPdf::39                      0                       # What write queue length does an incoming req see
system.mem_ctrls.wrQLenPdf::40                      0                       # What write queue length does an incoming req see
system.mem_ctrls.wrQLenPdf::41                      0                       # What write queue length does an incoming req see
system.mem_ctrls.wrQLenPdf::42                      0                       # What write queue length does an incoming req see
system.mem_ctrls.wrQLenPdf::43                      0                       # What write queue length does an incoming req see
system.mem_ctrls.wrQLenPdf::44                      0                       # What write queue length does an incoming req see
system.mem_ctrls.wrQLenPdf::45                      0                       # What write queue length does an incoming req see
system.mem_ctrls.wrQLenPdf::46                      0                       # What write queue length does an incoming req see
system.mem_ctrls.wrQLenPdf::47                      0                       # What write queue length does an incoming req see
system.mem_ctrls.wrQLenPdf::48                      0                       # What write queue length does an incoming req see
system.mem_ctrls.wrQLenPdf::49                      0                       # What write queue length does an incoming req see
system.mem_ctrls.wrQLenPdf::50                      0                       # What write queue length does an incoming req see
system.mem_ctrls.wrQLenPdf::51                      0                       # What write queue length does an incoming req see
system.mem_ctrls.wrQLenPdf::52                      0                       # What write queue length does an incoming req see
system.mem_ctrls.wrQLenPdf::53                      0                       # What write queue length does an incoming req see
system.mem_ctrls.wrQLenPdf::54                      0                       # What write queue length does an incoming req see
system.mem_ctrls.wrQLenPdf::55                      0                       # What write queue length does an incoming req see
system.mem_ctrls.wrQLenPdf::56                      0                       # What write queue length does an incoming req see
system.mem_ctrls.wrQLenPdf::57                      0                       # What write queue length does an incoming req see
system.mem_ctrls.wrQLenPdf::58                      0                       # What write queue length does an incoming req see
system.mem_ctrls.wrQLenPdf::59                      0                       # What write queue length does an incoming req see
system.mem_ctrls.wrQLenPdf::60                      0                       # What write queue length does an incoming req see
system.mem_ctrls.wrQLenPdf::61                      0                       # What write queue length does an incoming req see
system.mem_ctrls.wrQLenPdf::62                      0                       # What write queue length does an incoming req see
system.mem_ctrls.wrQLenPdf::63                      0                       # What write queue length does an incoming req see
system.mem_ctrls.totQLat                            0                       # Total ticks spent queuing
system.mem_ctrls.totMemAccLat                       0                       # Total ticks spent from burst creation until serviced by the DRAM
system.mem_ctrls.totBusLat                          0                       # Total ticks spent in databus transfers
system.mem_ctrls.avgQLat                          nan                       # Average queueing delay per DRAM burst
system.mem_ctrls.avgBusLat                        nan                       # Average bus latency per DRAM burst
system.mem_ctrls.avgMemAccLat                     nan                       # Average memory access latency per DRAM burst
system.mem_ctrls.avgRdBW                         0.00                       # Average DRAM read bandwidth in MiByte/s
system.mem_ctrls.avgWrBW                         0.00                       # Average achieved write bandwidth in MiByte/s
system.mem_ctrls.avgRdBWSys                      0.00                       # Average system read bandwidth in MiByte/s
system.mem_ctrls.avgWrBWSys                      0.00                       # Average system write bandwidth in MiByte/s
system.mem_ctrls.peakBW                      12800.00                       # Theoretical peak bandwidth in MiByte/s
system.mem_ctrls.busUtil                         0.00                       # Data bus utilization in percentage
system.mem_ctrls.busUtilRead                     0.00                       # Data bus utilization in percentage for reads
system.mem_ctrls.busUtilWrite                    0.00                       # Data bus utilization in percentage for writes
system.mem_ctrls.avgRdQLen                       0.00                       # Average read queue length when enqueuing
system.mem_ctrls.avgWrQLen                       0.00                       # Average write queue length when enqueuing
system.mem_ctrls.readRowHits                        0                       # Number of row buffer hits during reads
system.mem_ctrls.writeRowHits                       0                       # Number of row buffer hits during writes
system.mem_ctrls.readRowHitRate                   nan                       # Row buffer hit rate for reads
system.mem_ctrls.writeRowHitRate                  nan                       # Row buffer hit rate for writes
system.mem_ctrls.avgGap                           nan                       # Average gap between requests
system.mem_ctrls.pageHitRate                      nan                       # Row buffer hit rate, read and write combined
system.mem_ctrls_0.actEnergy                        0                       # Energy for activate commands per rank (pJ)
system.mem_ctrls_0.preEnergy                        0                       # Energy for precharge commands per rank (pJ)
system.mem_ctrls_0.readEnergy                       0                       # Energy for read commands per rank (pJ)
system.mem_ctrls_0.writeEnergy                      0                       # Energy for write commands per rank (pJ)
system.mem_ctrls_0.refreshEnergy                    0                       # Energy for refresh commands per rank (pJ)
system.mem_ctrls_0.actBackEnergy                    0                       # Energy for active background per rank (pJ)
system.mem_ctrls_0.preBackEnergy               269280                       # Energy for precharge background per rank (pJ)
system.mem_ctrls_0.actPowerDownEnergy               0                       # Energy for active power-down per rank (pJ)
system.mem_ctrls_0.prePowerDownEnergy               0                       # Energy for precharge power-down per rank (pJ)
system.mem_ctrls_0.selfRefreshEnergy                0                       # Energy for self refresh per rank (pJ)
system.mem_ctrls_0.totalEnergy                 269280                       # Total energy per rank (pJ)
system.mem_ctrls_0.averagePower            384.136947                       # Core power per rank (mW)
system.mem_ctrls_0.totalIdleTime                    0                       # Total Idle time Per DRAM Rank
system.mem_ctrls_0.memoryStateTime::IDLE       701000                       # Time in different power states
system.mem_ctrls_0.memoryStateTime::REF             0                       # Time in different power states
system.mem_ctrls_0.memoryStateTime::SREF            0                       # Time in different power states
system.mem_ctrls_0.memoryStateTime::PRE_PDN            0                       # Time in different power states
system.mem_ctrls_0.memoryStateTime::ACT             0                       # Time in different power states
system.mem_ctrls_0.memoryStateTime::ACT_PDN            0                       # Time in different power states
system.mem_ctrls_1.actEnergy                        0                       # Energy for activate commands per rank (pJ)
system.mem_ctrls_1.preEnergy                        0                       # Energy for precharge commands per rank (pJ)
system.mem_ctrls_1.readEnergy                       0                       # Energy for read commands per rank (pJ)
system.mem_ctrls_1.writeEnergy                      0                       # Energy for write commands per rank (pJ)
system.mem_ctrls_1.refreshEnergy                    0                       # Energy for refresh commands per rank (pJ)
system.mem_ctrls_1.actBackEnergy                    0                       # Energy for active background per rank (pJ)
system.mem_ctrls_1.preBackEnergy               269280                       # Energy for precharge background per rank (pJ)
system.mem_ctrls_1.actPowerDownEnergy               0                       # Energy for active power-down per rank (pJ)
system.mem_ctrls_1.prePowerDownEnergy               0                       # Energy for precharge power-down per rank (pJ)
system.mem_ctrls_1.selfRefreshEnergy                0                       # Energy for self refresh per rank (pJ)
system.mem_ctrls_1.totalEnergy                 269280                       # Total energy per rank (pJ)
system.mem_ctrls_1.averagePower            384.136947                       # Core power per rank (mW)
system.mem_ctrls_1.totalIdleTime                    0                       # Total Idle time Per DRAM Rank
system.mem_ctrls_1.memoryStateTime::IDLE       701000                       # Time in different power states
system.mem_ctrls_1.memoryStateTime::REF             0                       # Time in different power states
system.mem_ctrls_1.memoryStateTime::SREF            0                       # Time in different power states
system.mem_ctrls_1.memoryStateTime::PRE_PDN            0                       # Time in different power states
system.mem_ctrls_1.memoryStateTime::ACT             0                       # Time in different power states
system.mem_ctrls_1.memoryStateTime::ACT_PDN            0                       # Time in different power states
system.pwrStateResidencyTicks::UNDEFINED       701000                       # Cumulative time (in ticks) in various power states
system.cpu_voltage_domain.voltage                   1                       # Voltage in Volts
system.aes_aes_datapath.clk_domain.clock         1000                       # Clock period in ticks
system.aes_aes_datapath.pwrStateResidencyTicks::UNDEFINED       701000                       # Cumulative time (in ticks) in various power states
system.aes_aes_datapath.cache_queue_reads            0                       # Number of reads to the aes_aes_datapath.cache_queue
system.aes_aes_datapath.cache_queue_writes            0                       # Number of writes to the aes_aes_datapath.cache_queue
system.aes_aes_datapath.total_dcache_loads            0                       # Total number of dcache loads
system.aes_aes_datapath.total_dcache_stores            0                       # Total number of dcache stores.
system.aes_aes_datapath.dcache_latency::samples            0                       # Histogram of dcache total access latency
system.aes_aes_datapath.dcache_latency::mean          nan                       # Histogram of dcache total access latency
system.aes_aes_datapath.dcache_latency::gmean          nan                       # Histogram of dcache total access latency
system.aes_aes_datapath.dcache_latency::stdev          nan                       # Histogram of dcache total access latency
system.aes_aes_datapath.dcache_latency::0            0                       # Histogram of dcache total access latency
system.aes_aes_datapath.dcache_latency::1            0                       # Histogram of dcache total access latency
system.aes_aes_datapath.dcache_latency::2            0                       # Histogram of dcache total access latency
system.aes_aes_datapath.dcache_latency::3            0                       # Histogram of dcache total access latency
system.aes_aes_datapath.dcache_latency::4            0                       # Histogram of dcache total access latency
system.aes_aes_datapath.dcache_latency::5            0                       # Histogram of dcache total access latency
system.aes_aes_datapath.dcache_latency::6            0                       # Histogram of dcache total access latency
system.aes_aes_datapath.dcache_latency::7            0                       # Histogram of dcache total access latency
system.aes_aes_datapath.dcache_latency::8            0                       # Histogram of dcache total access latency
system.aes_aes_datapath.dcache_latency::9            0                       # Histogram of dcache total access latency
system.aes_aes_datapath.dcache_latency::10            0                       # Histogram of dcache total access latency
system.aes_aes_datapath.dcache_latency::11            0                       # Histogram of dcache total access latency
system.aes_aes_datapath.dcache_latency::12            0                       # Histogram of dcache total access latency
system.aes_aes_datapath.dcache_latency::13            0                       # Histogram of dcache total access latency
system.aes_aes_datapath.dcache_latency::14            0                       # Histogram of dcache total access latency
system.aes_aes_datapath.dcache_latency::15            0                       # Histogram of dcache total access latency
system.aes_aes_datapath.dcache_latency::16            0                       # Histogram of dcache total access latency
system.aes_aes_datapath.dcache_latency::17            0                       # Histogram of dcache total access latency
system.aes_aes_datapath.dcache_latency::18            0                       # Histogram of dcache total access latency
system.aes_aes_datapath.dcache_latency::19            0                       # Histogram of dcache total access latency
system.aes_aes_datapath.dcache_latency::20            0                       # Histogram of dcache total access latency
system.aes_aes_datapath.dcache_latency::21            0                       # Histogram of dcache total access latency
system.aes_aes_datapath.dcache_latency::22            0                       # Histogram of dcache total access latency
system.aes_aes_datapath.dcache_latency::23            0                       # Histogram of dcache total access latency
system.aes_aes_datapath.dcache_latency::24            0                       # Histogram of dcache total access latency
system.aes_aes_datapath.dcache_latency::25            0                       # Histogram of dcache total access latency
system.aes_aes_datapath.dcache_latency::26            0                       # Histogram of dcache total access latency
system.aes_aes_datapath.dcache_latency::27            0                       # Histogram of dcache total access latency
system.aes_aes_datapath.dcache_latency::28            0                       # Histogram of dcache total access latency
system.aes_aes_datapath.dcache_latency::29            0                       # Histogram of dcache total access latency
system.aes_aes_datapath.dcache_latency::total            0                       # Histogram of dcache total access latency
system.aes_aes_datapath.dcache_queue_time::samples            0                       # Histogram of time dcache request spent in queue
system.aes_aes_datapath.dcache_queue_time::mean          nan                       # Histogram of time dcache request spent in queue
system.aes_aes_datapath.dcache_queue_time::gmean          nan                       # Histogram of time dcache request spent in queue
system.aes_aes_datapath.dcache_queue_time::stdev          nan                       # Histogram of time dcache request spent in queue
system.aes_aes_datapath.dcache_queue_time::0            0                       # Histogram of time dcache request spent in queue
system.aes_aes_datapath.dcache_queue_time::1            0                       # Histogram of time dcache request spent in queue
system.aes_aes_datapath.dcache_queue_time::2            0                       # Histogram of time dcache request spent in queue
system.aes_aes_datapath.dcache_queue_time::3            0                       # Histogram of time dcache request spent in queue
system.aes_aes_datapath.dcache_queue_time::4            0                       # Histogram of time dcache request spent in queue
system.aes_aes_datapath.dcache_queue_time::5            0                       # Histogram of time dcache request spent in queue
system.aes_aes_datapath.dcache_queue_time::6            0                       # Histogram of time dcache request spent in queue
system.aes_aes_datapath.dcache_queue_time::7            0                       # Histogram of time dcache request spent in queue
system.aes_aes_datapath.dcache_queue_time::8            0                       # Histogram of time dcache request spent in queue
system.aes_aes_datapath.dcache_queue_time::9            0                       # Histogram of time dcache request spent in queue
system.aes_aes_datapath.dcache_queue_time::10            0                       # Histogram of time dcache request spent in queue
system.aes_aes_datapath.dcache_queue_time::11            0                       # Histogram of time dcache request spent in queue
system.aes_aes_datapath.dcache_queue_time::12            0                       # Histogram of time dcache request spent in queue
system.aes_aes_datapath.dcache_queue_time::13            0                       # Histogram of time dcache request spent in queue
system.aes_aes_datapath.dcache_queue_time::14            0                       # Histogram of time dcache request spent in queue
system.aes_aes_datapath.dcache_queue_time::15            0                       # Histogram of time dcache request spent in queue
system.aes_aes_datapath.dcache_queue_time::16            0                       # Histogram of time dcache request spent in queue
system.aes_aes_datapath.dcache_queue_time::17            0                       # Histogram of time dcache request spent in queue
system.aes_aes_datapath.dcache_queue_time::18            0                       # Histogram of time dcache request spent in queue
system.aes_aes_datapath.dcache_queue_time::19            0                       # Histogram of time dcache request spent in queue
system.aes_aes_datapath.dcache_queue_time::20            0                       # Histogram of time dcache request spent in queue
system.aes_aes_datapath.dcache_queue_time::21            0                       # Histogram of time dcache request spent in queue
system.aes_aes_datapath.dcache_queue_time::22            0                       # Histogram of time dcache request spent in queue
system.aes_aes_datapath.dcache_queue_time::23            0                       # Histogram of time dcache request spent in queue
system.aes_aes_datapath.dcache_queue_time::24            0                       # Histogram of time dcache request spent in queue
system.aes_aes_datapath.dcache_queue_time::25            0                       # Histogram of time dcache request spent in queue
system.aes_aes_datapath.dcache_queue_time::26            0                       # Histogram of time dcache request spent in queue
system.aes_aes_datapath.dcache_queue_time::27            0                       # Histogram of time dcache request spent in queue
system.aes_aes_datapath.dcache_queue_time::28            0                       # Histogram of time dcache request spent in queue
system.aes_aes_datapath.dcache_queue_time::29            0                       # Histogram of time dcache request spent in queue
system.aes_aes_datapath.dcache_queue_time::total            0                       # Histogram of time dcache request spent in queue
system.aes_aes_datapath.total_acp_loads             0                       # Total number of ACP loads
system.aes_aes_datapath.total_acp_stores            0                       # Total number of ACP stores.
system.aes_aes_datapath.acp_latency::samples            0                       # Histogram of ACP transaction total latency
system.aes_aes_datapath.acp_latency::mean          nan                       # Histogram of ACP transaction total latency
system.aes_aes_datapath.acp_latency::gmean          nan                       # Histogram of ACP transaction total latency
system.aes_aes_datapath.acp_latency::stdev          nan                       # Histogram of ACP transaction total latency
system.aes_aes_datapath.acp_latency::0              0                       # Histogram of ACP transaction total latency
system.aes_aes_datapath.acp_latency::1              0                       # Histogram of ACP transaction total latency
system.aes_aes_datapath.acp_latency::2              0                       # Histogram of ACP transaction total latency
system.aes_aes_datapath.acp_latency::3              0                       # Histogram of ACP transaction total latency
system.aes_aes_datapath.acp_latency::4              0                       # Histogram of ACP transaction total latency
system.aes_aes_datapath.acp_latency::5              0                       # Histogram of ACP transaction total latency
system.aes_aes_datapath.acp_latency::6              0                       # Histogram of ACP transaction total latency
system.aes_aes_datapath.acp_latency::7              0                       # Histogram of ACP transaction total latency
system.aes_aes_datapath.acp_latency::8              0                       # Histogram of ACP transaction total latency
system.aes_aes_datapath.acp_latency::9              0                       # Histogram of ACP transaction total latency
system.aes_aes_datapath.acp_latency::10             0                       # Histogram of ACP transaction total latency
system.aes_aes_datapath.acp_latency::11             0                       # Histogram of ACP transaction total latency
system.aes_aes_datapath.acp_latency::12             0                       # Histogram of ACP transaction total latency
system.aes_aes_datapath.acp_latency::13             0                       # Histogram of ACP transaction total latency
system.aes_aes_datapath.acp_latency::14             0                       # Histogram of ACP transaction total latency
system.aes_aes_datapath.acp_latency::15             0                       # Histogram of ACP transaction total latency
system.aes_aes_datapath.acp_latency::16             0                       # Histogram of ACP transaction total latency
system.aes_aes_datapath.acp_latency::17             0                       # Histogram of ACP transaction total latency
system.aes_aes_datapath.acp_latency::18             0                       # Histogram of ACP transaction total latency
system.aes_aes_datapath.acp_latency::19             0                       # Histogram of ACP transaction total latency
system.aes_aes_datapath.acp_latency::20             0                       # Histogram of ACP transaction total latency
system.aes_aes_datapath.acp_latency::21             0                       # Histogram of ACP transaction total latency
system.aes_aes_datapath.acp_latency::22             0                       # Histogram of ACP transaction total latency
system.aes_aes_datapath.acp_latency::23             0                       # Histogram of ACP transaction total latency
system.aes_aes_datapath.acp_latency::24             0                       # Histogram of ACP transaction total latency
system.aes_aes_datapath.acp_latency::25             0                       # Histogram of ACP transaction total latency
system.aes_aes_datapath.acp_latency::26             0                       # Histogram of ACP transaction total latency
system.aes_aes_datapath.acp_latency::27             0                       # Histogram of ACP transaction total latency
system.aes_aes_datapath.acp_latency::28             0                       # Histogram of ACP transaction total latency
system.aes_aes_datapath.acp_latency::29             0                       # Histogram of ACP transaction total latency
system.aes_aes_datapath.acp_latency::total            0                       # Histogram of ACP transaction total latency
system.aes_aes_datapath.acp_queue_time::samples            0                       # Histogram of time ACP request spent in queue
system.aes_aes_datapath.acp_queue_time::mean          nan                       # Histogram of time ACP request spent in queue
system.aes_aes_datapath.acp_queue_time::gmean          nan                       # Histogram of time ACP request spent in queue
system.aes_aes_datapath.acp_queue_time::stdev          nan                       # Histogram of time ACP request spent in queue
system.aes_aes_datapath.acp_queue_time::0            0                       # Histogram of time ACP request spent in queue
system.aes_aes_datapath.acp_queue_time::1            0                       # Histogram of time ACP request spent in queue
system.aes_aes_datapath.acp_queue_time::2            0                       # Histogram of time ACP request spent in queue
system.aes_aes_datapath.acp_queue_time::3            0                       # Histogram of time ACP request spent in queue
system.aes_aes_datapath.acp_queue_time::4            0                       # Histogram of time ACP request spent in queue
system.aes_aes_datapath.acp_queue_time::5            0                       # Histogram of time ACP request spent in queue
system.aes_aes_datapath.acp_queue_time::6            0                       # Histogram of time ACP request spent in queue
system.aes_aes_datapath.acp_queue_time::7            0                       # Histogram of time ACP request spent in queue
system.aes_aes_datapath.acp_queue_time::8            0                       # Histogram of time ACP request spent in queue
system.aes_aes_datapath.acp_queue_time::9            0                       # Histogram of time ACP request spent in queue
system.aes_aes_datapath.acp_queue_time::10            0                       # Histogram of time ACP request spent in queue
system.aes_aes_datapath.acp_queue_time::11            0                       # Histogram of time ACP request spent in queue
system.aes_aes_datapath.acp_queue_time::12            0                       # Histogram of time ACP request spent in queue
system.aes_aes_datapath.acp_queue_time::13            0                       # Histogram of time ACP request spent in queue
system.aes_aes_datapath.acp_queue_time::14            0                       # Histogram of time ACP request spent in queue
system.aes_aes_datapath.acp_queue_time::15            0                       # Histogram of time ACP request spent in queue
system.aes_aes_datapath.acp_queue_time::16            0                       # Histogram of time ACP request spent in queue
system.aes_aes_datapath.acp_queue_time::17            0                       # Histogram of time ACP request spent in queue
system.aes_aes_datapath.acp_queue_time::18            0                       # Histogram of time ACP request spent in queue
system.aes_aes_datapath.acp_queue_time::19            0                       # Histogram of time ACP request spent in queue
system.aes_aes_datapath.acp_queue_time::20            0                       # Histogram of time ACP request spent in queue
system.aes_aes_datapath.acp_queue_time::21            0                       # Histogram of time ACP request spent in queue
system.aes_aes_datapath.acp_queue_time::22            0                       # Histogram of time ACP request spent in queue
system.aes_aes_datapath.acp_queue_time::23            0                       # Histogram of time ACP request spent in queue
system.aes_aes_datapath.acp_queue_time::24            0                       # Histogram of time ACP request spent in queue
system.aes_aes_datapath.acp_queue_time::25            0                       # Histogram of time ACP request spent in queue
system.aes_aes_datapath.acp_queue_time::26            0                       # Histogram of time ACP request spent in queue
system.aes_aes_datapath.acp_queue_time::27            0                       # Histogram of time ACP request spent in queue
system.aes_aes_datapath.acp_queue_time::28            0                       # Histogram of time ACP request spent in queue
system.aes_aes_datapath.acp_queue_time::29            0                       # Histogram of time ACP request spent in queue
system.aes_aes_datapath.acp_queue_time::total            0                       # Histogram of time ACP request spent in queue
system.aes_aes_datapath.dma_setup_cycles           30                       # Total number of cycles spent on setting up DMA transfers.
system.aes_aes_datapath.sim_cycles                671                       # Total accelerator cycles
system.aes_aes_datapath.tlb.hits                    0                       # TLB hits
system.aes_aes_datapath.tlb.misses                  0                       # TLB misses
system.aes_aes_datapath.tlb.reads                   0                       # TLB reads
system.aes_aes_datapath.tlb.updates                 0                       # TLB updates
system.aes_aes_datapath.cache.prefetcher.pwrStateResidencyTicks::UNDEFINED       701000                       # Cumulative time (in ticks) in various power states
system.aes_aes_datapath.cache.prefetcher.num_hwpf_issued            0                       # number of hwpf issued
system.aes_aes_datapath.cache.prefetcher.pfIdentified            0                       # number of prefetch candidates identified
system.aes_aes_datapath.cache.prefetcher.pfBufferHit            0                       # number of redundant prefetches already in prefetch queue
system.aes_aes_datapath.cache.prefetcher.pfInCache            0                       # number of redundant prefetches already in cache/mshr dropped
system.aes_aes_datapath.cache.prefetcher.pfRemovedFull            0                       # number of prefetches dropped due to prefetch queue size
system.aes_aes_datapath.cache.prefetcher.pfSpanPage            0                       # number of prefetches not generated due to page crossing
system.aes_aes_datapath.cache.tags.pwrStateResidencyTicks::UNDEFINED       701000                       # Cumulative time (in ticks) in various power states
system.aes_aes_datapath.cache.tags.tagsinuse            0                       # Cycle average of tags in use
system.aes_aes_datapath.cache.tags.total_refs            0                       # Total number of references to valid blocks.
system.aes_aes_datapath.cache.tags.sampled_refs            0                       # Sample count of references to valid blocks.
system.aes_aes_datapath.cache.tags.avg_refs          nan                       # Average number of references to valid blocks.
system.aes_aes_datapath.cache.tags.warmup_cycle            0                       # Cycle when the warmup percentage was hit.
system.aes_aes_datapath.cache.tags.tag_accesses            0                       # Number of tag accesses
system.aes_aes_datapath.cache.tags.data_accesses            0                       # Number of data accesses
system.aes_aes_datapath.cache.pwrStateResidencyTicks::UNDEFINED       701000                       # Cumulative time (in ticks) in various power states
system.aes_aes_datapath.cache.blocked_cycles::no_mshrs            0                       # number of cycles access was blocked
system.aes_aes_datapath.cache.blocked_cycles::no_targets            0                       # number of cycles access was blocked
system.aes_aes_datapath.cache.blocked::no_mshrs            0                       # number of cycles access was blocked
system.aes_aes_datapath.cache.blocked::no_targets            0                       # number of cycles access was blocked
system.aes_aes_datapath.cache.avg_blocked_cycles::no_mshrs          nan                       # average number of cycles each access was blocked
system.aes_aes_datapath.cache.avg_blocked_cycles::no_targets          nan                       # average number of cycles each access was blocked
system.aes_aes_datapath.cache.replacements            0                       # number of replacements
system.cpu_clk_domain.clock                       500                       # Clock period in ticks
system.membus.snoop_filter.tot_requests             0                       # Total number of requests made to the snoop filter.
system.membus.snoop_filter.hit_single_requests            0                       # Number of requests hitting in the snoop filter with a single holder of the requested data.
system.membus.snoop_filter.hit_multi_requests            0                       # Number of requests hitting in the snoop filter with multiple (>1) holders of the requested data.
system.membus.snoop_filter.tot_snoops               0                       # Total number of snoops made to the snoop filter.
system.membus.snoop_filter.hit_single_snoops            0                       # Number of snoops hitting in the snoop filter with a single holder of the requested data.
system.membus.snoop_filter.hit_multi_snoops            0                       # Number of snoops hitting in the snoop filter with multiple (>1) holders of the requested data.
system.membus.pwrStateResidencyTicks::UNDEFINED       701000                       # Cumulative time (in ticks) in various power states
system.membus.snoops                                0                       # Total snoops (count)
system.membus.snoopTraffic                          0                       # Total snoop traffic (bytes)
system.membus.snoop_fanout::samples                 0                       # Request fanout histogram
system.membus.snoop_fanout::mean                  nan                       # Request fanout histogram
system.membus.snoop_fanout::stdev                 nan                       # Request fanout histogram
system.membus.snoop_fanout::underflows              0                       # Request fanout histogram
system.membus.snoop_fanout::0                       0                       # Request fanout histogram
system.membus.snoop_fanout::1                       0                       # Request fanout histogram
system.membus.snoop_fanout::2                       0                       # Request fanout histogram
system.membus.snoop_fanout::overflows               0                       # Request fanout histogram
system.membus.snoop_fanout::min_value               0                       # Request fanout histogram
system.membus.snoop_fanout::max_value               0                       # Request fanout histogram
system.membus.snoop_fanout::total                   0                       # Request fanout histogram

---------- End Simulation Statistics   ----------
