
---------- Begin Simulation Statistics ----------
sim_seconds                                  0.000097                       # Number of seconds simulated
sim_ticks                                    97410000                       # Number of ticks simulated
final_tick                                   97410000                       # Number of ticks from beginning of simulation (restored from checkpoints and never reset)
sim_freq                                 1000000000000                       # Frequency of simulated ticks
host_tick_rate                              126084989                       # Simulator tick rate (ticks/s)
host_mem_usage                                4906760                       # Number of bytes of host memory used
host_seconds                                     0.77                       # Real time elapsed on the host
system.voltage_domain.voltage                       1                       # Voltage in Volts
system.clk_domain.clock                          2004                       # Clock period in ticks
system.mem_ctrls.pwrStateResidencyTicks::UNDEFINED     97410000                       # Cumulative time (in ticks) in various power states
system.mem_ctrls.bytes_read::.bfs_bulk_datapath.system.bfs_bulk_datapath.cache        19872                       # Number of bytes read from this memory
system.mem_ctrls.bytes_read::.bfs_bulk_datapath.cache.prefetcher        28512                       # Number of bytes read from this memory
system.mem_ctrls.bytes_read::total              48384                       # Number of bytes read from this memory
system.mem_ctrls.num_reads::.bfs_bulk_datapath.system.bfs_bulk_datapath.cache          621                       # Number of read requests responded to by this memory
system.mem_ctrls.num_reads::.bfs_bulk_datapath.cache.prefetcher          891                       # Number of read requests responded to by this memory
system.mem_ctrls.num_reads::total                1512                       # Number of read requests responded to by this memory
system.mem_ctrls.bw_read::.bfs_bulk_datapath.system.bfs_bulk_datapath.cache    204003696                       # Total read bandwidth from this memory (bytes/s)
system.mem_ctrls.bw_read::.bfs_bulk_datapath.cache.prefetcher    292700955                       # Total read bandwidth from this memory (bytes/s)
system.mem_ctrls.bw_read::total             496704650                       # Total read bandwidth from this memory (bytes/s)
system.mem_ctrls.bw_total::.bfs_bulk_datapath.system.bfs_bulk_datapath.cache    204003696                       # Total bandwidth to/from this memory (bytes/s)
system.mem_ctrls.bw_total::.bfs_bulk_datapath.cache.prefetcher    292700955                       # Total bandwidth to/from this memory (bytes/s)
system.mem_ctrls.bw_total::total            496704650                       # Total bandwidth to/from this memory (bytes/s)
system.mem_ctrls.avgPriority_.bfs_bulk_datapath.system.bfs_bulk_datapath.cache::samples       621.00                       # Average QoS priority value for accepted requests
system.mem_ctrls.avgPriority_.bfs_bulk_datapath.cache.prefetcher::samples       891.00                       # Average QoS priority value for accepted requests
system.mem_ctrls.priorityMinLatency      0.000000018750                       # per QoS priority minimum request to response latency (s)
system.mem_ctrls.priorityMaxLatency      0.000000531250                       # per QoS priority maximum request to response latency (s)
system.mem_ctrls.numReadWriteTurnArounds            0                       # Number of turnarounds from READ to WRITE
system.mem_ctrls.numWriteReadTurnArounds            0                       # Number of turnarounds from WRITE to READ
system.mem_ctrls.numStayReadState                2442                       # Number of times bus staying in READ state
system.mem_ctrls.numStayWriteState                  0                       # Number of times bus staying in WRITE state
system.mem_ctrls.readReqs                        1512                       # Number of read requests accepted
system.mem_ctrls.writeReqs                          0                       # Number of write requests accepted
system.mem_ctrls.readBursts                      1512                       # Number of DRAM read bursts, including those serviced by the write queue
system.mem_ctrls.writeBursts                        0                       # Number of DRAM write bursts, including those merged in the write queue
system.mem_ctrls.bytesReadDRAM                  96768                       # Total number of bytes read from DRAM
system.mem_ctrls.bytesReadWrQ                       0                       # Total number of bytes read from write queue
system.mem_ctrls.bytesWritten                       0                       # Total number of bytes written to DRAM
system.mem_ctrls.bytesReadSys                   48384                       # Total read bytes from the system interface side
system.mem_ctrls.bytesWrittenSys                    0                       # Total written bytes from the system interface side
system.mem_ctrls.servicedByWrQ                      0                       # Number of DRAM read bursts serviced by the write queue
system.mem_ctrls.mergedWrBursts                     0                       # Number of DRAM write bursts merged with an existing one
system.mem_ctrls.neitherReadNorWriteReqs            0                       # Number of requests that are neither read nor write
system.mem_ctrls.perBankRdBursts::0               232                       # Per bank write bursts
system.mem_ctrls.perBankRdBursts::1               296                       # Per bank write bursts
system.mem_ctrls.perBankRdBursts::2               303                       # Per bank write bursts
system.mem_ctrls.perBankRdBursts::3               358                       # Per bank write bursts
system.mem_ctrls.perBankRdBursts::4               323                       # Per bank write bursts
system.mem_ctrls.perBankRdBursts::5                 0                       # Per bank write bursts
system.mem_ctrls.perBankRdBursts::6                 0                       # Per bank write bursts
system.mem_ctrls.perBankRdBursts::7                 0                       # Per bank write bursts
system.mem_ctrls.perBankRdBursts::8                 0                       # Per bank write bursts
system.mem_ctrls.perBankRdBursts::9                 0                       # Per bank write bursts
system.mem_ctrls.perBankRdBursts::10                0                       # Per bank write bursts
system.mem_ctrls.perBankRdBursts::11                0                       # Per bank write bursts
system.mem_ctrls.perBankRdBursts::12                0                       # Per bank write bursts
system.mem_ctrls.perBankRdBursts::13                0                       # Per bank write bursts
system.mem_ctrls.perBankRdBursts::14                0                       # Per bank write bursts
system.mem_ctrls.perBankRdBursts::15                0                       # Per bank write bursts
system.mem_ctrls.perBankWrBursts::0                 0                       # Per bank write bursts
system.mem_ctrls.perBankWrBursts::1                 0                       # Per bank write bursts
system.mem_ctrls.perBankWrBursts::2                 0                       # Per bank write bursts
system.mem_ctrls.perBankWrBursts::3                 0                       # Per bank write bursts
system.mem_ctrls.perBankWrBursts::4                 0                       # Per bank write bursts
system.mem_ctrls.perBankWrBursts::5                 0                       # Per bank write bursts
system.mem_ctrls.perBankWrBursts::6                 0                       # Per bank write bursts
system.mem_ctrls.perBankWrBursts::7                 0                       # Per bank write bursts
system.mem_ctrls.perBankWrBursts::8                 0                       # Per bank write bursts
system.mem_ctrls.perBankWrBursts::9                 0                       # Per bank write bursts
system.mem_ctrls.perBankWrBursts::10                0                       # Per bank write bursts
system.mem_ctrls.perBankWrBursts::11                0                       # Per bank write bursts
system.mem_ctrls.perBankWrBursts::12                0                       # Per bank write bursts
system.mem_ctrls.perBankWrBursts::13                0                       # Per bank write bursts
system.mem_ctrls.perBankWrBursts::14                0                       # Per bank write bursts
system.mem_ctrls.perBankWrBursts::15                0                       # Per bank write bursts
system.mem_ctrls.numRdRetry                         0                       # Number of times read queue was full causing retry
system.mem_ctrls.numWrRetry                         0                       # Number of times write queue was full causing retry
system.mem_ctrls.totGap                      92224312                       # Total gap between requests
system.mem_ctrls.readPktSize::0                     0                       # Read request sizes (log2)
system.mem_ctrls.readPktSize::1                     0                       # Read request sizes (log2)
system.mem_ctrls.readPktSize::2                     0                       # Read request sizes (log2)
system.mem_ctrls.readPktSize::3                     0                       # Read request sizes (log2)
system.mem_ctrls.readPktSize::4                     0                       # Read request sizes (log2)
system.mem_ctrls.readPktSize::5                  1512                       # Read request sizes (log2)
system.mem_ctrls.readPktSize::6                     0                       # Read request sizes (log2)
system.mem_ctrls.writePktSize::0                    0                       # Write request sizes (log2)
system.mem_ctrls.writePktSize::1                    0                       # Write request sizes (log2)
system.mem_ctrls.writePktSize::2                    0                       # Write request sizes (log2)
system.mem_ctrls.writePktSize::3                    0                       # Write request sizes (log2)
system.mem_ctrls.writePktSize::4                    0                       # Write request sizes (log2)
system.mem_ctrls.writePktSize::5                    0                       # Write request sizes (log2)
system.mem_ctrls.writePktSize::6                    0                       # Write request sizes (log2)
system.mem_ctrls.rdQLenPdf::0                     285                       # What read queue length does an incoming req see
system.mem_ctrls.rdQLenPdf::1                     152                       # What read queue length does an incoming req see
system.mem_ctrls.rdQLenPdf::2                     119                       # What read queue length does an incoming req see
system.mem_ctrls.rdQLenPdf::3                     108                       # What read queue length does an incoming req see
system.mem_ctrls.rdQLenPdf::4                     146                       # What read queue length does an incoming req see
system.mem_ctrls.rdQLenPdf::5                     136                       # What read queue length does an incoming req see
system.mem_ctrls.rdQLenPdf::6                     101                       # What read queue length does an incoming req see
system.mem_ctrls.rdQLenPdf::7                      89                       # What read queue length does an incoming req see
system.mem_ctrls.rdQLenPdf::8                      77                       # What read queue length does an incoming req see
system.mem_ctrls.rdQLenPdf::9                      75                       # What read queue length does an incoming req see
system.mem_ctrls.rdQLenPdf::10                     70                       # What read queue length does an incoming req see
system.mem_ctrls.rdQLenPdf::11                     74                       # What read queue length does an incoming req see
system.mem_ctrls.rdQLenPdf::12                     58                       # What read queue length does an incoming req see
system.mem_ctrls.rdQLenPdf::13                     22                       # What read queue length does an incoming req see
system.mem_ctrls.rdQLenPdf::14                      0                       # What read queue length does an incoming req see
system.mem_ctrls.rdQLenPdf::15                      0                       # What read queue length does an incoming req see
system.mem_ctrls.rdQLenPdf::16                      0                       # What read queue length does an incoming req see
system.mem_ctrls.rdQLenPdf::17                      0                       # What read queue length does an incoming req see
system.mem_ctrls.rdQLenPdf::18                      0                       # What read queue length does an incoming req see
system.mem_ctrls.rdQLenPdf::19                      0                       # What read queue length does an incoming req see
system.mem_ctrls.rdQLenPdf::20                      0                       # What read queue length does an incoming req see
system.mem_ctrls.rdQLenPdf::21                      0                       # What read queue length does an incoming req see
system.mem_ctrls.rdQLenPdf::22                      0                       # What read queue length does an incoming req see
system.mem_ctrls.rdQLenPdf::23                      0                       # What read queue length does an incoming req see
system.mem_ctrls.rdQLenPdf::24                      0                       # What read queue length does an incoming req see
system.mem_ctrls.rdQLenPdf::25                      0                       # What read queue length does an incoming req see
system.mem_ctrls.rdQLenPdf::26                      0                       # What read queue length does an incoming req see
system.mem_ctrls.rdQLenPdf::27                      0                       # What read queue length does an incoming req see
system.mem_ctrls.rdQLenPdf::28                      0                       # What read queue length does an incoming req see
system.mem_ctrls.rdQLenPdf::29                      0                       # What read queue length does an incoming req see
system.mem_ctrls.rdQLenPdf::30                      0                       # What read queue length does an incoming req see
system.mem_ctrls.rdQLenPdf::31                      0                       # What read queue length does an incoming req see
system.mem_ctrls.wrQLenPdf::0                       0                       # What write queue length does an incoming req see
system.mem_ctrls.wrQLenPdf::1                       0                       # What write queue length does an incoming req see
system.mem_ctrls.wrQLenPdf::2                       0                       # What write queue length does an incoming req see
system.mem_ctrls.wrQLenPdf::3                       0                       # What write queue length does an incoming req see
system.mem_ctrls.wrQLenPdf::4                       0                       # What write queue length does an incoming req see
system.mem_ctrls.wrQLenPdf::5                       0                       # What write queue length does an incoming req see
system.mem_ctrls.wrQLenPdf::6                       0                       # What write queue length does an incoming req see
system.mem_ctrls.wrQLenPdf::7                       0                       # What write queue length does an incoming req see
system.mem_ctrls.wrQLenPdf::8                       0                       # What write queue length does an incoming req see
system.mem_ctrls.wrQLenPdf::9                       0                       # What write queue length does an incoming req see
system.mem_ctrls.wrQLenPdf::10                      0                       # What write queue length does an incoming req see
system.mem_ctrls.wrQLenPdf::11                      0                       # What write queue length does an incoming req see
system.mem_ctrls.wrQLenPdf::12                      0                       # What write queue length does an incoming req see
system.mem_ctrls.wrQLenPdf::13                      0                       # What write queue length does an incoming req see
system.mem_ctrls.wrQLenPdf::14                      0                       # What write queue length does an incoming req see
system.mem_ctrls.wrQLenPdf::15                      0                       # What write queue length does an incoming req see
system.mem_ctrls.wrQLenPdf::16                      0                       # What write queue length does an incoming req see
system.mem_ctrls.wrQLenPdf::17                      0                       # What write queue length does an incoming req see
system.mem_ctrls.wrQLenPdf::18                      0                       # What write queue length does an incoming req see
system.mem_ctrls.wrQLenPdf::19                      0                       # What write queue length does an incoming req see
system.mem_ctrls.wrQLenPdf::20                      0                       # What write queue length does an incoming req see
system.mem_ctrls.wrQLenPdf::21                      0                       # What write queue length does an incoming req see
system.mem_ctrls.wrQLenPdf::22                      0                       # What write queue length does an incoming req see
system.mem_ctrls.wrQLenPdf::23                      0                       # What write queue length does an incoming req see
system.mem_ctrls.wrQLenPdf::24                      0                       # What write queue length does an incoming req see
system.mem_ctrls.wrQLenPdf::25                      0                       # What write queue length does an incoming req see
system.mem_ctrls.wrQLenPdf::26                      0                       # What write queue length does an incoming req see
system.mem_ctrls.wrQLenPdf::27                      0                       # What write queue length does an incoming req see
system.mem_ctrls.wrQLenPdf::28                      0                       # What write queue length does an incoming req see
system.mem_ctrls.wrQLenPdf::29                      0                       # What write queue length does an incoming req see
system.mem_ctrls.wrQLenPdf::30                      0                       # What write queue length does an incoming req see
system.mem_ctrls.wrQLenPdf::31                      0                       # What write queue length does an incoming req see
system.mem_ctrls.wrQLenPdf::32                      0                       # What write queue length does an incoming req see
system.mem_ctrls.wrQLenPdf::33                      0                       # What write queue length does an incoming req see
system.mem_ctrls.wrQLenPdf::34                      0                       # What write queue length does an incoming req see
system.mem_ctrls.wrQLenPdf::35                      0                       # What write queue length does an incoming req see
system.mem_ctrls.wrQLenPdf::36                      0                       # What write queue length does an incoming req see
system.mem_ctrls.wrQLenPdf::37                      0                       # What write queue length does an incoming req see
system.mem_ctrls.wrQLenPdf::38                      0                       # What write queue length does an incoming req see
system.mem_ctrls.wrQLenPdf::39                      0                       # What write queue length does an incoming req see
system.mem_ctrls.wrQLenPdf::40                      0                       # What write queue length does an incoming req see
system.mem_ctrls.wrQLenPdf::41                      0                       # What write queue length does an incoming req see
system.mem_ctrls.wrQLenPdf::42                      0                       # What write queue length does an incoming req see
system.mem_ctrls.wrQLenPdf::43                      0                       # What write queue length does an incoming req see
system.mem_ctrls.wrQLenPdf::44                      0                       # What write queue length does an incoming req see
system.mem_ctrls.wrQLenPdf::45                      0                       # What write queue length does an incoming req see
system.mem_ctrls.wrQLenPdf::46                      0                       # What write queue length does an incoming req see
system.mem_ctrls.wrQLenPdf::47                      0                       # What write queue length does an incoming req see
system.mem_ctrls.wrQLenPdf::48                      0                       # What write queue length does an incoming req see
system.mem_ctrls.wrQLenPdf::49                      0                       # What write queue length does an incoming req see
system.mem_ctrls.wrQLenPdf::50                      0                       # What write queue length does an incoming req see
system.mem_ctrls.wrQLenPdf::51                      0                       # What write queue length does an incoming req see
system.mem_ctrls.wrQLenPdf::52                      0                       # What write queue length does an incoming req see
system.mem_ctrls.wrQLenPdf::53                      0                       # What write queue length does an incoming req see
system.mem_ctrls.wrQLenPdf::54                      0                       # What write queue length does an incoming req see
system.mem_ctrls.wrQLenPdf::55                      0                       # What write queue length does an incoming req see
system.mem_ctrls.wrQLenPdf::56                      0                       # What write queue length does an incoming req see
system.mem_ctrls.wrQLenPdf::57                      0                       # What write queue length does an incoming req see
system.mem_ctrls.wrQLenPdf::58                      0                       # What write queue length does an incoming req see
system.mem_ctrls.wrQLenPdf::59                      0                       # What write queue length does an incoming req see
system.mem_ctrls.wrQLenPdf::60                      0                       # What write queue length does an incoming req see
system.mem_ctrls.wrQLenPdf::61                      0                       # What write queue length does an incoming req see
system.mem_ctrls.wrQLenPdf::62                      0                       # What write queue length does an incoming req see
system.mem_ctrls.wrQLenPdf::63                      0                       # What write queue length does an incoming req see
system.mem_ctrls.bytesPerActivate::samples          114                       # Bytes accessed per row activation
system.mem_ctrls.bytesPerActivate::mean    848.842105                       # Bytes accessed per row activation
system.mem_ctrls.bytesPerActivate::gmean   751.182648                       # Bytes accessed per row activation
system.mem_ctrls.bytesPerActivate::stdev   300.675569                       # Bytes accessed per row activation
system.mem_ctrls.bytesPerActivate::0-127            1      0.88%      0.88% # Bytes accessed per row activation
system.mem_ctrls.bytesPerActivate::128-255            8      7.02%      7.89% # Bytes accessed per row activation
system.mem_ctrls.bytesPerActivate::256-383            7      6.14%     14.04% # Bytes accessed per row activation
system.mem_ctrls.bytesPerActivate::384-511            4      3.51%     17.54% # Bytes accessed per row activation
system.mem_ctrls.bytesPerActivate::512-639            5      4.39%     21.93% # Bytes accessed per row activation
system.mem_ctrls.bytesPerActivate::640-767            2      1.75%     23.68% # Bytes accessed per row activation
system.mem_ctrls.bytesPerActivate::768-895            6      5.26%     28.95% # Bytes accessed per row activation
system.mem_ctrls.bytesPerActivate::896-1023            2      1.75%     30.70% # Bytes accessed per row activation
system.mem_ctrls.bytesPerActivate::1024-1151           79     69.30%    100.00% # Bytes accessed per row activation
system.mem_ctrls.bytesPerActivate::total          114                       # Bytes accessed per row activation
system.mem_ctrls.masterReadBytes::.bfs_bulk_datapath.system.bfs_bulk_datapath.cache        19872                       # Per-master bytes read from memory
system.mem_ctrls.masterReadBytes::.bfs_bulk_datapath.cache.prefetcher        28512                       # Per-master bytes read from memory
system.mem_ctrls.masterReadRate::.bfs_bulk_datapath.system.bfs_bulk_datapath.cache 204003695.719125330448                       # Per-master bytes read from memory rate (Bytes/sec)
system.mem_ctrls.masterReadRate::.bfs_bulk_datapath.cache.prefetcher 292700954.727440714836                       # Per-master bytes read from memory rate (Bytes/sec)
system.mem_ctrls.masterReadAccesses::.bfs_bulk_datapath.system.bfs_bulk_datapath.cache          621                       # Per-master read serviced memory accesses
system.mem_ctrls.masterReadAccesses::.bfs_bulk_datapath.cache.prefetcher          891                       # Per-master read serviced memory accesses
system.mem_ctrls.masterReadTotalLat::.bfs_bulk_datapath.system.bfs_bulk_datapath.cache     30441467                       # Per-master read total memory access latency
system.mem_ctrls.masterReadTotalLat::.bfs_bulk_datapath.cache.prefetcher     43587279                       # Per-master read total memory access latency
system.mem_ctrls.masterReadAvgLat::.bfs_bulk_datapath.system.bfs_bulk_datapath.cache     49020.08                       # Per-master read average memory access latency
system.mem_ctrls.masterReadAvgLat::.bfs_bulk_datapath.cache.prefetcher     48919.51                       # Per-master read average memory access latency
system.mem_ctrls.totQLat                     45678746                       # Total ticks spent queuing
system.mem_ctrls.totMemAccLat                74028746                       # Total ticks spent from burst creation until serviced by the DRAM
system.mem_ctrls.totBusLat                    7560000                       # Total ticks spent in databus transfers
system.mem_ctrls.avgQLat                     30210.81                       # Average queueing delay per DRAM burst
system.mem_ctrls.avgBusLat                    5000.00                       # Average bus latency per DRAM burst
system.mem_ctrls.avgMemAccLat                48960.81                       # Average memory access latency per DRAM burst
system.mem_ctrls.avgRdBW                       993.41                       # Average DRAM read bandwidth in MiByte/s
system.mem_ctrls.avgWrBW                         0.00                       # Average achieved write bandwidth in MiByte/s
system.mem_ctrls.avgRdBWSys                    496.70                       # Average system read bandwidth in MiByte/s
system.mem_ctrls.avgWrBWSys                      0.00                       # Average system write bandwidth in MiByte/s
system.mem_ctrls.peakBW                      12800.00                       # Theoretical peak bandwidth in MiByte/s
system.mem_ctrls.busUtil                         7.76                       # Data bus utilization in percentage
system.mem_ctrls.busUtilRead                     7.76                       # Data bus utilization in percentage for reads
system.mem_ctrls.busUtilWrite                    0.00                       # Data bus utilization in percentage for writes
system.mem_ctrls.avgRdQLen                       4.31                       # Average read queue length when enqueuing
system.mem_ctrls.avgWrQLen                       0.00                       # Average write queue length when enqueuing
system.mem_ctrls.readRowHits                     1398                       # Number of row buffer hits during reads
system.mem_ctrls.writeRowHits                       0                       # Number of row buffer hits during writes
system.mem_ctrls.readRowHitRate                 92.46                       # Row buffer hit rate for reads
system.mem_ctrls.writeRowHitRate                  nan                       # Row buffer hit rate for writes
system.mem_ctrls.avgGap                      60994.92                       # Average gap between requests
system.mem_ctrls.pageHitRate                    92.46                       # Row buffer hit rate, read and write combined
system.mem_ctrls_0.actEnergy                   813960                       # Energy for activate commands per rank (pJ)
system.mem_ctrls_0.preEnergy                   432630                       # Energy for precharge commands per rank (pJ)
system.mem_ctrls_0.readEnergy                10795680                       # Energy for read commands per rank (pJ)
system.mem_ctrls_0.writeEnergy                      0                       # Energy for write commands per rank (pJ)
system.mem_ctrls_0.refreshEnergy         7375680.000000                       # Energy for refresh commands per rank (pJ)
system.mem_ctrls_0.actBackEnergy              9306960                       # Energy for active background per rank (pJ)
system.mem_ctrls_0.preBackEnergy               192000                       # Energy for precharge background per rank (pJ)
system.mem_ctrls_0.actPowerDownEnergy        31946790                       # Energy for active power-down per rank (pJ)
system.mem_ctrls_0.prePowerDownEnergy         2473440                       # Energy for precharge power-down per rank (pJ)
system.mem_ctrls_0.selfRefreshEnergy                0                       # Energy for self refresh per rank (pJ)
system.mem_ctrls_0.totalEnergy               63337140                       # Total energy per rank (pJ)
system.mem_ctrls_0.averagePower            650.211888                       # Core power per rank (mW)
system.mem_ctrls_0.totalIdleTime             72799778                       # Total Idle time Per DRAM Rank
system.mem_ctrls_0.memoryStateTime::IDLE       170000                       # Time in different power states
system.mem_ctrls_0.memoryStateTime::REF       3120000                       # Time in different power states
system.mem_ctrls_0.memoryStateTime::SREF            0                       # Time in different power states
system.mem_ctrls_0.memoryStateTime::PRE_PDN      6439756                       # Time in different power states
system.mem_ctrls_0.memoryStateTime::ACT      17624972                       # Time in different power states
system.mem_ctrls_0.memoryStateTime::ACT_PDN     70055272                       # Time in different power states
system.mem_ctrls_1.actEnergy                        0                       # Energy for activate commands per rank (pJ)
system.mem_ctrls_1.preEnergy                        0                       # Energy for precharge commands per rank (pJ)
system.mem_ctrls_1.readEnergy                       0                       # Energy for read commands per rank (pJ)
system.mem_ctrls_1.writeEnergy                      0                       # Energy for write commands per rank (pJ)
system.mem_ctrls_1.refreshEnergy         614640.000000                       # Energy for refresh commands per rank (pJ)
system.mem_ctrls_1.actBackEnergy               112290                       # Energy for active background per rank (pJ)
system.mem_ctrls_1.preBackEnergy              2997600                       # Energy for precharge background per rank (pJ)
system.mem_ctrls_1.actPowerDownEnergy               0                       # Energy for active power-down per rank (pJ)
system.mem_ctrls_1.prePowerDownEnergy         2890080                       # Energy for precharge power-down per rank (pJ)
system.mem_ctrls_1.selfRefreshEnergy         20191740                       # Energy for self refresh per rank (pJ)
system.mem_ctrls_1.totalEnergy               26806350                       # Total energy per rank (pJ)
system.mem_ctrls_1.averagePower            275.190945                       # Core power per rank (mW)
system.mem_ctrls_1.totalIdleTime              7526250                       # Total Idle time Per DRAM Rank
system.mem_ctrls_1.memoryStateTime::IDLE      7792250                       # Time in different power states
system.mem_ctrls_1.memoryStateTime::REF        260000                       # Time in different power states
system.mem_ctrls_1.memoryStateTime::SREF     81831500                       # Time in different power states
system.mem_ctrls_1.memoryStateTime::PRE_PDN      7526250                       # Time in different power states
system.mem_ctrls_1.memoryStateTime::ACT             0                       # Time in different power states
system.mem_ctrls_1.memoryStateTime::ACT_PDN            0                       # Time in different power states
system.pwrStateResidencyTicks::UNDEFINED     97410000                       # Cumulative time (in ticks) in various power states
system.cpu_voltage_domain.voltage                   1                       # Voltage in Volts
system.bfs_bulk_datapath.clk_domain.clock         2000                       # Clock period in ticks
system.bfs_bulk_datapath.pwrStateResidencyTicks::UNDEFINED     97410000                       # Cumulative time (in ticks) in various power states
system.bfs_bulk_datapath.cache_queue_reads            0                       # Number of reads to the bfs_bulk_datapath.cache_queue
system.bfs_bulk_datapath.cache_queue_writes            0                       # Number of writes to the bfs_bulk_datapath.cache_queue
system.bfs_bulk_datapath.total_dcache_loads         3828                       # Total number of dcache loads
system.bfs_bulk_datapath.total_dcache_stores          238                       # Total number of dcache stores.
system.bfs_bulk_datapath.dcache_latency::samples         4066                       # Histogram of dcache total access latency
system.bfs_bulk_datapath.dcache_latency::mean 18647.233891                       # Histogram of dcache total access latency
system.bfs_bulk_datapath.dcache_latency::gmean  3779.657973                       # Histogram of dcache total access latency
system.bfs_bulk_datapath.dcache_latency::stdev 40320.407614                       # Histogram of dcache total access latency
system.bfs_bulk_datapath.dcache_latency::0-16383         3405     83.74%     83.74% # Histogram of dcache total access latency
system.bfs_bulk_datapath.dcache_latency::16384-32767            0      0.00%     83.74% # Histogram of dcache total access latency
system.bfs_bulk_datapath.dcache_latency::32768-49151            0      0.00%     83.74% # Histogram of dcache total access latency
system.bfs_bulk_datapath.dcache_latency::49152-65535            0      0.00%     83.74% # Histogram of dcache total access latency
system.bfs_bulk_datapath.dcache_latency::65536-81919          196      4.82%     88.56% # Histogram of dcache total access latency
system.bfs_bulk_datapath.dcache_latency::81920-98303          156      3.84%     92.40% # Histogram of dcache total access latency
system.bfs_bulk_datapath.dcache_latency::98304-114687           94      2.31%     94.71% # Histogram of dcache total access latency
system.bfs_bulk_datapath.dcache_latency::114688-131071          110      2.71%     97.42% # Histogram of dcache total access latency
system.bfs_bulk_datapath.dcache_latency::131072-147455           39      0.96%     98.38% # Histogram of dcache total access latency
system.bfs_bulk_datapath.dcache_latency::147456-163839           30      0.74%     99.11% # Histogram of dcache total access latency
system.bfs_bulk_datapath.dcache_latency::163840-180223           24      0.59%     99.70% # Histogram of dcache total access latency
system.bfs_bulk_datapath.dcache_latency::180224-196607            0      0.00%     99.70% # Histogram of dcache total access latency
system.bfs_bulk_datapath.dcache_latency::196608-212991            0      0.00%     99.70% # Histogram of dcache total access latency
system.bfs_bulk_datapath.dcache_latency::212992-229375            0      0.00%     99.70% # Histogram of dcache total access latency
system.bfs_bulk_datapath.dcache_latency::229376-245759            2      0.05%     99.75% # Histogram of dcache total access latency
system.bfs_bulk_datapath.dcache_latency::245760-262143            5      0.12%     99.88% # Histogram of dcache total access latency
system.bfs_bulk_datapath.dcache_latency::262144-278527            4      0.10%     99.98% # Histogram of dcache total access latency
system.bfs_bulk_datapath.dcache_latency::278528-294911            0      0.00%     99.98% # Histogram of dcache total access latency
system.bfs_bulk_datapath.dcache_latency::294912-311295            0      0.00%     99.98% # Histogram of dcache total access latency
system.bfs_bulk_datapath.dcache_latency::311296-327679            0      0.00%     99.98% # Histogram of dcache total access latency
system.bfs_bulk_datapath.dcache_latency::327680-344063            1      0.02%    100.00% # Histogram of dcache total access latency
system.bfs_bulk_datapath.dcache_latency::344064-360447            0      0.00%    100.00% # Histogram of dcache total access latency
system.bfs_bulk_datapath.dcache_latency::360448-376831            0      0.00%    100.00% # Histogram of dcache total access latency
system.bfs_bulk_datapath.dcache_latency::376832-393215            0      0.00%    100.00% # Histogram of dcache total access latency
system.bfs_bulk_datapath.dcache_latency::393216-409599            0      0.00%    100.00% # Histogram of dcache total access latency
system.bfs_bulk_datapath.dcache_latency::409600-425983            0      0.00%    100.00% # Histogram of dcache total access latency
system.bfs_bulk_datapath.dcache_latency::425984-442367            0      0.00%    100.00% # Histogram of dcache total access latency
system.bfs_bulk_datapath.dcache_latency::442368-458751            0      0.00%    100.00% # Histogram of dcache total access latency
system.bfs_bulk_datapath.dcache_latency::458752-475135            0      0.00%    100.00% # Histogram of dcache total access latency
system.bfs_bulk_datapath.dcache_latency::475136-491519            0      0.00%    100.00% # Histogram of dcache total access latency
system.bfs_bulk_datapath.dcache_latency::total         4066                       # Histogram of dcache total access latency
system.bfs_bulk_datapath.dcache_queue_time::samples         4007                       # Histogram of time dcache request spent in queue
system.bfs_bulk_datapath.dcache_queue_time::mean 43823.309209                       # Histogram of time dcache request spent in queue
system.bfs_bulk_datapath.dcache_queue_time::gmean 43413.714122                       # Histogram of time dcache request spent in queue
system.bfs_bulk_datapath.dcache_queue_time::stdev  7487.231650                       # Histogram of time dcache request spent in queue
system.bfs_bulk_datapath.dcache_queue_time::0-8191            0      0.00%      0.00% # Histogram of time dcache request spent in queue
system.bfs_bulk_datapath.dcache_queue_time::8192-16383            0      0.00%      0.00% # Histogram of time dcache request spent in queue
system.bfs_bulk_datapath.dcache_queue_time::16384-24575            0      0.00%      0.00% # Histogram of time dcache request spent in queue
system.bfs_bulk_datapath.dcache_queue_time::24576-32767            0      0.00%      0.00% # Histogram of time dcache request spent in queue
system.bfs_bulk_datapath.dcache_queue_time::32768-40959            0      0.00%      0.00% # Histogram of time dcache request spent in queue
system.bfs_bulk_datapath.dcache_queue_time::40960-49151         3845     95.96%     95.96% # Histogram of time dcache request spent in queue
system.bfs_bulk_datapath.dcache_queue_time::49152-57343           38      0.95%     96.91% # Histogram of time dcache request spent in queue
system.bfs_bulk_datapath.dcache_queue_time::57344-65535            9      0.22%     97.13% # Histogram of time dcache request spent in queue
system.bfs_bulk_datapath.dcache_queue_time::65536-73727            0      0.00%     97.13% # Histogram of time dcache request spent in queue
system.bfs_bulk_datapath.dcache_queue_time::73728-81919            4      0.10%     97.23% # Histogram of time dcache request spent in queue
system.bfs_bulk_datapath.dcache_queue_time::81920-90111          108      2.70%     99.93% # Histogram of time dcache request spent in queue
system.bfs_bulk_datapath.dcache_queue_time::90112-98303            1      0.02%     99.95% # Histogram of time dcache request spent in queue
system.bfs_bulk_datapath.dcache_queue_time::98304-106495            1      0.02%     99.98% # Histogram of time dcache request spent in queue
system.bfs_bulk_datapath.dcache_queue_time::106496-114687            0      0.00%     99.98% # Histogram of time dcache request spent in queue
system.bfs_bulk_datapath.dcache_queue_time::114688-122879            0      0.00%     99.98% # Histogram of time dcache request spent in queue
system.bfs_bulk_datapath.dcache_queue_time::122880-131071            1      0.02%    100.00% # Histogram of time dcache request spent in queue
system.bfs_bulk_datapath.dcache_queue_time::131072-139263            0      0.00%    100.00% # Histogram of time dcache request spent in queue
system.bfs_bulk_datapath.dcache_queue_time::139264-147455            0      0.00%    100.00% # Histogram of time dcache request spent in queue
system.bfs_bulk_datapath.dcache_queue_time::147456-155647            0      0.00%    100.00% # Histogram of time dcache request spent in queue
system.bfs_bulk_datapath.dcache_queue_time::155648-163839            0      0.00%    100.00% # Histogram of time dcache request spent in queue
system.bfs_bulk_datapath.dcache_queue_time::163840-172031            0      0.00%    100.00% # Histogram of time dcache request spent in queue
system.bfs_bulk_datapath.dcache_queue_time::172032-180223            0      0.00%    100.00% # Histogram of time dcache request spent in queue
system.bfs_bulk_datapath.dcache_queue_time::180224-188415            0      0.00%    100.00% # Histogram of time dcache request spent in queue
system.bfs_bulk_datapath.dcache_queue_time::188416-196607            0      0.00%    100.00% # Histogram of time dcache request spent in queue
system.bfs_bulk_datapath.dcache_queue_time::196608-204799            0      0.00%    100.00% # Histogram of time dcache request spent in queue
system.bfs_bulk_datapath.dcache_queue_time::204800-212991            0      0.00%    100.00% # Histogram of time dcache request spent in queue
system.bfs_bulk_datapath.dcache_queue_time::212992-221183            0      0.00%    100.00% # Histogram of time dcache request spent in queue
system.bfs_bulk_datapath.dcache_queue_time::221184-229375            0      0.00%    100.00% # Histogram of time dcache request spent in queue
system.bfs_bulk_datapath.dcache_queue_time::229376-237567            0      0.00%    100.00% # Histogram of time dcache request spent in queue
system.bfs_bulk_datapath.dcache_queue_time::237568-245759            0      0.00%    100.00% # Histogram of time dcache request spent in queue
system.bfs_bulk_datapath.dcache_queue_time::total         4007                       # Histogram of time dcache request spent in queue
system.bfs_bulk_datapath.total_acp_loads            0                       # Total number of ACP loads
system.bfs_bulk_datapath.total_acp_stores            0                       # Total number of ACP stores.
system.bfs_bulk_datapath.acp_latency::samples            0                       # Histogram of ACP transaction total latency
system.bfs_bulk_datapath.acp_latency::mean          nan                       # Histogram of ACP transaction total latency
system.bfs_bulk_datapath.acp_latency::gmean          nan                       # Histogram of ACP transaction total latency
system.bfs_bulk_datapath.acp_latency::stdev          nan                       # Histogram of ACP transaction total latency
system.bfs_bulk_datapath.acp_latency::0             0                       # Histogram of ACP transaction total latency
system.bfs_bulk_datapath.acp_latency::1             0                       # Histogram of ACP transaction total latency
system.bfs_bulk_datapath.acp_latency::2             0                       # Histogram of ACP transaction total latency
system.bfs_bulk_datapath.acp_latency::3             0                       # Histogram of ACP transaction total latency
system.bfs_bulk_datapath.acp_latency::4             0                       # Histogram of ACP transaction total latency
system.bfs_bulk_datapath.acp_latency::5             0                       # Histogram of ACP transaction total latency
system.bfs_bulk_datapath.acp_latency::6             0                       # Histogram of ACP transaction total latency
system.bfs_bulk_datapath.acp_latency::7             0                       # Histogram of ACP transaction total latency
system.bfs_bulk_datapath.acp_latency::8             0                       # Histogram of ACP transaction total latency
system.bfs_bulk_datapath.acp_latency::9             0                       # Histogram of ACP transaction total latency
system.bfs_bulk_datapath.acp_latency::10            0                       # Histogram of ACP transaction total latency
system.bfs_bulk_datapath.acp_latency::11            0                       # Histogram of ACP transaction total latency
system.bfs_bulk_datapath.acp_latency::12            0                       # Histogram of ACP transaction total latency
system.bfs_bulk_datapath.acp_latency::13            0                       # Histogram of ACP transaction total latency
system.bfs_bulk_datapath.acp_latency::14            0                       # Histogram of ACP transaction total latency
system.bfs_bulk_datapath.acp_latency::15            0                       # Histogram of ACP transaction total latency
system.bfs_bulk_datapath.acp_latency::16            0                       # Histogram of ACP transaction total latency
system.bfs_bulk_datapath.acp_latency::17            0                       # Histogram of ACP transaction total latency
system.bfs_bulk_datapath.acp_latency::18            0                       # Histogram of ACP transaction total latency
system.bfs_bulk_datapath.acp_latency::19            0                       # Histogram of ACP transaction total latency
system.bfs_bulk_datapath.acp_latency::20            0                       # Histogram of ACP transaction total latency
system.bfs_bulk_datapath.acp_latency::21            0                       # Histogram of ACP transaction total latency
system.bfs_bulk_datapath.acp_latency::22            0                       # Histogram of ACP transaction total latency
system.bfs_bulk_datapath.acp_latency::23            0                       # Histogram of ACP transaction total latency
system.bfs_bulk_datapath.acp_latency::24            0                       # Histogram of ACP transaction total latency
system.bfs_bulk_datapath.acp_latency::25            0                       # Histogram of ACP transaction total latency
system.bfs_bulk_datapath.acp_latency::26            0                       # Histogram of ACP transaction total latency
system.bfs_bulk_datapath.acp_latency::27            0                       # Histogram of ACP transaction total latency
system.bfs_bulk_datapath.acp_latency::28            0                       # Histogram of ACP transaction total latency
system.bfs_bulk_datapath.acp_latency::29            0                       # Histogram of ACP transaction total latency
system.bfs_bulk_datapath.acp_latency::total            0                       # Histogram of ACP transaction total latency
system.bfs_bulk_datapath.acp_queue_time::samples            0                       # Histogram of time ACP request spent in queue
system.bfs_bulk_datapath.acp_queue_time::mean          nan                       # Histogram of time ACP request spent in queue
system.bfs_bulk_datapath.acp_queue_time::gmean          nan                       # Histogram of time ACP request spent in queue
system.bfs_bulk_datapath.acp_queue_time::stdev          nan                       # Histogram of time ACP request spent in queue
system.bfs_bulk_datapath.acp_queue_time::0            0                       # Histogram of time ACP request spent in queue
system.bfs_bulk_datapath.acp_queue_time::1            0                       # Histogram of time ACP request spent in queue
system.bfs_bulk_datapath.acp_queue_time::2            0                       # Histogram of time ACP request spent in queue
system.bfs_bulk_datapath.acp_queue_time::3            0                       # Histogram of time ACP request spent in queue
system.bfs_bulk_datapath.acp_queue_time::4            0                       # Histogram of time ACP request spent in queue
system.bfs_bulk_datapath.acp_queue_time::5            0                       # Histogram of time ACP request spent in queue
system.bfs_bulk_datapath.acp_queue_time::6            0                       # Histogram of time ACP request spent in queue
system.bfs_bulk_datapath.acp_queue_time::7            0                       # Histogram of time ACP request spent in queue
system.bfs_bulk_datapath.acp_queue_time::8            0                       # Histogram of time ACP request spent in queue
system.bfs_bulk_datapath.acp_queue_time::9            0                       # Histogram of time ACP request spent in queue
system.bfs_bulk_datapath.acp_queue_time::10            0                       # Histogram of time ACP request spent in queue
system.bfs_bulk_datapath.acp_queue_time::11            0                       # Histogram of time ACP request spent in queue
system.bfs_bulk_datapath.acp_queue_time::12            0                       # Histogram of time ACP request spent in queue
system.bfs_bulk_datapath.acp_queue_time::13            0                       # Histogram of time ACP request spent in queue
system.bfs_bulk_datapath.acp_queue_time::14            0                       # Histogram of time ACP request spent in queue
system.bfs_bulk_datapath.acp_queue_time::15            0                       # Histogram of time ACP request spent in queue
system.bfs_bulk_datapath.acp_queue_time::16            0                       # Histogram of time ACP request spent in queue
system.bfs_bulk_datapath.acp_queue_time::17            0                       # Histogram of time ACP request spent in queue
system.bfs_bulk_datapath.acp_queue_time::18            0                       # Histogram of time ACP request spent in queue
system.bfs_bulk_datapath.acp_queue_time::19            0                       # Histogram of time ACP request spent in queue
system.bfs_bulk_datapath.acp_queue_time::20            0                       # Histogram of time ACP request spent in queue
system.bfs_bulk_datapath.acp_queue_time::21            0                       # Histogram of time ACP request spent in queue
system.bfs_bulk_datapath.acp_queue_time::22            0                       # Histogram of time ACP request spent in queue
system.bfs_bulk_datapath.acp_queue_time::23            0                       # Histogram of time ACP request spent in queue
system.bfs_bulk_datapath.acp_queue_time::24            0                       # Histogram of time ACP request spent in queue
system.bfs_bulk_datapath.acp_queue_time::25            0                       # Histogram of time ACP request spent in queue
system.bfs_bulk_datapath.acp_queue_time::26            0                       # Histogram of time ACP request spent in queue
system.bfs_bulk_datapath.acp_queue_time::27            0                       # Histogram of time ACP request spent in queue
system.bfs_bulk_datapath.acp_queue_time::28            0                       # Histogram of time ACP request spent in queue
system.bfs_bulk_datapath.acp_queue_time::29            0                       # Histogram of time ACP request spent in queue
system.bfs_bulk_datapath.acp_queue_time::total            0                       # Histogram of time ACP request spent in queue
system.bfs_bulk_datapath.dma_setup_cycles           15                       # Total number of cycles spent on setting up DMA transfers.
system.bfs_bulk_datapath.sim_cycles             48690                       # Total accelerator cycles
system.bfs_bulk_datapath.tlb.hits                4066                       # TLB hits
system.bfs_bulk_datapath.tlb.misses               116                       # TLB misses
system.bfs_bulk_datapath.tlb.reads               4182                       # TLB reads
system.bfs_bulk_datapath.tlb.updates               24                       # TLB updates
system.bfs_bulk_datapath.tlb.hitRate         0.972262                       # TLB hit rate
system.bfs_bulk_datapath.cache.prefetcher.pwrStateResidencyTicks::UNDEFINED     97410000                       # Cumulative time (in ticks) in various power states
system.bfs_bulk_datapath.cache.prefetcher.num_hwpf_issued        10588                       # number of hwpf issued
system.bfs_bulk_datapath.cache.prefetcher.pfIdentified        15775                       # number of prefetch candidates identified
system.bfs_bulk_datapath.cache.prefetcher.pfBufferHit         4511                       # number of redundant prefetches already in prefetch queue
system.bfs_bulk_datapath.cache.prefetcher.pfInCache            0                       # number of redundant prefetches already in cache/mshr dropped
system.bfs_bulk_datapath.cache.prefetcher.pfRemovedFull            0                       # number of prefetches dropped due to prefetch queue size
system.bfs_bulk_datapath.cache.prefetcher.pfSpanPage          505                       # number of prefetches not generated due to page crossing
system.bfs_bulk_datapath.cache.tags.pwrStateResidencyTicks::UNDEFINED     97410000                       # Cumulative time (in ticks) in various power states
system.bfs_bulk_datapath.cache.tags.tagsinuse   359.128191                       # Cycle average of tags in use
system.bfs_bulk_datapath.cache.tags.total_refs         4917                       # Total number of references to valid blocks.
system.bfs_bulk_datapath.cache.tags.sampled_refs         1512                       # Sample count of references to valid blocks.
system.bfs_bulk_datapath.cache.tags.avg_refs     3.251984                       # Average number of references to valid blocks.
system.bfs_bulk_datapath.cache.tags.warmup_cycle       190380                       # Cycle when the warmup percentage was hit.
system.bfs_bulk_datapath.cache.tags.occ_blocks::.bfs_bulk_datapath.system.bfs_bulk_datapath.cache   142.678715                       # Average occupied blocks per requestor
system.bfs_bulk_datapath.cache.tags.occ_blocks::.bfs_bulk_datapath.cache.prefetcher   216.449476                       # Average occupied blocks per requestor
system.bfs_bulk_datapath.cache.tags.occ_percent::.bfs_bulk_datapath.system.bfs_bulk_datapath.cache     0.278669                       # Average percentage of cache occupancy
system.bfs_bulk_datapath.cache.tags.occ_percent::.bfs_bulk_datapath.cache.prefetcher     0.422753                       # Average percentage of cache occupancy
system.bfs_bulk_datapath.cache.tags.occ_percent::total     0.701422                       # Average percentage of cache occupancy
system.bfs_bulk_datapath.cache.tags.occ_task_id_blocks::1022          332                       # Occupied blocks per task id
system.bfs_bulk_datapath.cache.tags.occ_task_id_blocks::1024          180                       # Occupied blocks per task id
system.bfs_bulk_datapath.cache.tags.age_task_id_blocks_1022::1          332                       # Occupied blocks per task id
system.bfs_bulk_datapath.cache.tags.age_task_id_blocks_1024::0           12                       # Occupied blocks per task id
system.bfs_bulk_datapath.cache.tags.age_task_id_blocks_1024::1          168                       # Occupied blocks per task id
system.bfs_bulk_datapath.cache.tags.occ_task_id_percent::1022     0.648438                       # Percentage of cache occupancy per task id
system.bfs_bulk_datapath.cache.tags.occ_task_id_percent::1024     0.351562                       # Percentage of cache occupancy per task id
system.bfs_bulk_datapath.cache.tags.tag_accesses        17776                       # Number of tag accesses
system.bfs_bulk_datapath.cache.tags.data_accesses        17776                       # Number of data accesses
system.bfs_bulk_datapath.cache.pwrStateResidencyTicks::UNDEFINED     97410000                       # Cumulative time (in ticks) in various power states
system.bfs_bulk_datapath.cache.ReadReq_hits::.bfs_bulk_datapath.system.bfs_bulk_datapath.cache         3169                       # number of ReadReq hits
system.bfs_bulk_datapath.cache.ReadReq_hits::total         3169                       # number of ReadReq hits
system.bfs_bulk_datapath.cache.WriteReq_hits::.bfs_bulk_datapath.system.bfs_bulk_datapath.cache          236                       # number of WriteReq hits
system.bfs_bulk_datapath.cache.WriteReq_hits::total          236                       # number of WriteReq hits
system.bfs_bulk_datapath.cache.demand_hits::.bfs_bulk_datapath.system.bfs_bulk_datapath.cache         3405                       # number of demand (read+write) hits
system.bfs_bulk_datapath.cache.demand_hits::total         3405                       # number of demand (read+write) hits
system.bfs_bulk_datapath.cache.overall_hits::.bfs_bulk_datapath.system.bfs_bulk_datapath.cache         3405                       # number of overall hits
system.bfs_bulk_datapath.cache.overall_hits::total         3405                       # number of overall hits
system.bfs_bulk_datapath.cache.ReadReq_misses::.bfs_bulk_datapath.system.bfs_bulk_datapath.cache          659                       # number of ReadReq misses
system.bfs_bulk_datapath.cache.ReadReq_misses::total          659                       # number of ReadReq misses
system.bfs_bulk_datapath.cache.WriteReq_misses::.bfs_bulk_datapath.system.bfs_bulk_datapath.cache            2                       # number of WriteReq misses
system.bfs_bulk_datapath.cache.WriteReq_misses::total            2                       # number of WriteReq misses
system.bfs_bulk_datapath.cache.demand_misses::.bfs_bulk_datapath.system.bfs_bulk_datapath.cache          661                       # number of demand (read+write) misses
system.bfs_bulk_datapath.cache.demand_misses::total          661                       # number of demand (read+write) misses
system.bfs_bulk_datapath.cache.overall_misses::.bfs_bulk_datapath.system.bfs_bulk_datapath.cache          661                       # number of overall misses
system.bfs_bulk_datapath.cache.overall_misses::total          661                       # number of overall misses
system.bfs_bulk_datapath.cache.ReadReq_miss_latency::.bfs_bulk_datapath.system.bfs_bulk_datapath.cache     68835540                       # number of ReadReq miss cycles
system.bfs_bulk_datapath.cache.ReadReq_miss_latency::total     68835540                       # number of ReadReq miss cycles
system.bfs_bulk_datapath.cache.WriteReq_miss_latency::.bfs_bulk_datapath.system.bfs_bulk_datapath.cache       166000                       # number of WriteReq miss cycles
system.bfs_bulk_datapath.cache.WriteReq_miss_latency::total       166000                       # number of WriteReq miss cycles
system.bfs_bulk_datapath.cache.demand_miss_latency::.bfs_bulk_datapath.system.bfs_bulk_datapath.cache     69001540                       # number of demand (read+write) miss cycles
system.bfs_bulk_datapath.cache.demand_miss_latency::total     69001540                       # number of demand (read+write) miss cycles
system.bfs_bulk_datapath.cache.overall_miss_latency::.bfs_bulk_datapath.system.bfs_bulk_datapath.cache     69001540                       # number of overall miss cycles
system.bfs_bulk_datapath.cache.overall_miss_latency::total     69001540                       # number of overall miss cycles
system.bfs_bulk_datapath.cache.ReadReq_accesses::.bfs_bulk_datapath.system.bfs_bulk_datapath.cache         3828                       # number of ReadReq accesses(hits+misses)
system.bfs_bulk_datapath.cache.ReadReq_accesses::total         3828                       # number of ReadReq accesses(hits+misses)
system.bfs_bulk_datapath.cache.WriteReq_accesses::.bfs_bulk_datapath.system.bfs_bulk_datapath.cache          238                       # number of WriteReq accesses(hits+misses)
system.bfs_bulk_datapath.cache.WriteReq_accesses::total          238                       # number of WriteReq accesses(hits+misses)
system.bfs_bulk_datapath.cache.demand_accesses::.bfs_bulk_datapath.system.bfs_bulk_datapath.cache         4066                       # number of demand (read+write) accesses
system.bfs_bulk_datapath.cache.demand_accesses::total         4066                       # number of demand (read+write) accesses
system.bfs_bulk_datapath.cache.overall_accesses::.bfs_bulk_datapath.system.bfs_bulk_datapath.cache         4066                       # number of overall (read+write) accesses
system.bfs_bulk_datapath.cache.overall_accesses::total         4066                       # number of overall (read+write) accesses
system.bfs_bulk_datapath.cache.ReadReq_miss_rate::.bfs_bulk_datapath.system.bfs_bulk_datapath.cache     0.172153                       # miss rate for ReadReq accesses
system.bfs_bulk_datapath.cache.ReadReq_miss_rate::total     0.172153                       # miss rate for ReadReq accesses
system.bfs_bulk_datapath.cache.WriteReq_miss_rate::.bfs_bulk_datapath.system.bfs_bulk_datapath.cache     0.008403                       # miss rate for WriteReq accesses
system.bfs_bulk_datapath.cache.WriteReq_miss_rate::total     0.008403                       # miss rate for WriteReq accesses
system.bfs_bulk_datapath.cache.demand_miss_rate::.bfs_bulk_datapath.system.bfs_bulk_datapath.cache     0.162568                       # miss rate for demand accesses
system.bfs_bulk_datapath.cache.demand_miss_rate::total     0.162568                       # miss rate for demand accesses
system.bfs_bulk_datapath.cache.overall_miss_rate::.bfs_bulk_datapath.system.bfs_bulk_datapath.cache     0.162568                       # miss rate for overall accesses
system.bfs_bulk_datapath.cache.overall_miss_rate::total     0.162568                       # miss rate for overall accesses
system.bfs_bulk_datapath.cache.ReadReq_avg_miss_latency::.bfs_bulk_datapath.system.bfs_bulk_datapath.cache 104454.537178                       # average ReadReq miss latency
system.bfs_bulk_datapath.cache.ReadReq_avg_miss_latency::total 104454.537178                       # average ReadReq miss latency
system.bfs_bulk_datapath.cache.WriteReq_avg_miss_latency::.bfs_bulk_datapath.system.bfs_bulk_datapath.cache        83000                       # average WriteReq miss latency
system.bfs_bulk_datapath.cache.WriteReq_avg_miss_latency::total        83000                       # average WriteReq miss latency
system.bfs_bulk_datapath.cache.demand_avg_miss_latency::.bfs_bulk_datapath.system.bfs_bulk_datapath.cache 104389.621785                       # average overall miss latency
system.bfs_bulk_datapath.cache.demand_avg_miss_latency::total 104389.621785                       # average overall miss latency
system.bfs_bulk_datapath.cache.overall_avg_miss_latency::.bfs_bulk_datapath.system.bfs_bulk_datapath.cache 104389.621785                       # average overall miss latency
system.bfs_bulk_datapath.cache.overall_avg_miss_latency::total 104389.621785                       # average overall miss latency
system.bfs_bulk_datapath.cache.blocked_cycles::no_mshrs          435                       # number of cycles access was blocked
system.bfs_bulk_datapath.cache.blocked_cycles::no_targets            0                       # number of cycles access was blocked
system.bfs_bulk_datapath.cache.blocked::no_mshrs           61                       # number of cycles access was blocked
system.bfs_bulk_datapath.cache.blocked::no_targets            0                       # number of cycles access was blocked
system.bfs_bulk_datapath.cache.avg_blocked_cycles::no_mshrs     7.131148                       # average number of cycles each access was blocked
system.bfs_bulk_datapath.cache.avg_blocked_cycles::no_targets          nan                       # average number of cycles each access was blocked
system.bfs_bulk_datapath.cache.unused_prefetches          238                       # number of HardPF blocks evicted w/o reference
system.bfs_bulk_datapath.cache.ReadReq_mshr_hits::.bfs_bulk_datapath.system.bfs_bulk_datapath.cache           40                       # number of ReadReq MSHR hits
system.bfs_bulk_datapath.cache.ReadReq_mshr_hits::total           40                       # number of ReadReq MSHR hits
system.bfs_bulk_datapath.cache.demand_mshr_hits::.bfs_bulk_datapath.system.bfs_bulk_datapath.cache           40                       # number of demand (read+write) MSHR hits
system.bfs_bulk_datapath.cache.demand_mshr_hits::total           40                       # number of demand (read+write) MSHR hits
system.bfs_bulk_datapath.cache.overall_mshr_hits::.bfs_bulk_datapath.system.bfs_bulk_datapath.cache           40                       # number of overall MSHR hits
system.bfs_bulk_datapath.cache.overall_mshr_hits::total           40                       # number of overall MSHR hits
system.bfs_bulk_datapath.cache.ReadReq_mshr_misses::.bfs_bulk_datapath.system.bfs_bulk_datapath.cache          619                       # number of ReadReq MSHR misses
system.bfs_bulk_datapath.cache.ReadReq_mshr_misses::total          619                       # number of ReadReq MSHR misses
system.bfs_bulk_datapath.cache.WriteReq_mshr_misses::.bfs_bulk_datapath.system.bfs_bulk_datapath.cache            2                       # number of WriteReq MSHR misses
system.bfs_bulk_datapath.cache.WriteReq_mshr_misses::total            2                       # number of WriteReq MSHR misses
system.bfs_bulk_datapath.cache.HardPFReq_mshr_misses::.bfs_bulk_datapath.cache.prefetcher          891                       # number of HardPFReq MSHR misses
system.bfs_bulk_datapath.cache.HardPFReq_mshr_misses::total          891                       # number of HardPFReq MSHR misses
system.bfs_bulk_datapath.cache.demand_mshr_misses::.bfs_bulk_datapath.system.bfs_bulk_datapath.cache          621                       # number of demand (read+write) MSHR misses
system.bfs_bulk_datapath.cache.demand_mshr_misses::total          621                       # number of demand (read+write) MSHR misses
system.bfs_bulk_datapath.cache.overall_mshr_misses::.bfs_bulk_datapath.system.bfs_bulk_datapath.cache          621                       # number of overall MSHR misses
system.bfs_bulk_datapath.cache.overall_mshr_misses::.bfs_bulk_datapath.cache.prefetcher          891                       # number of overall MSHR misses
system.bfs_bulk_datapath.cache.overall_mshr_misses::total         1512                       # number of overall MSHR misses
system.bfs_bulk_datapath.cache.ReadReq_mshr_miss_latency::.bfs_bulk_datapath.system.bfs_bulk_datapath.cache     63822936                       # number of ReadReq MSHR miss cycles
system.bfs_bulk_datapath.cache.ReadReq_mshr_miss_latency::total     63822936                       # number of ReadReq MSHR miss cycles
system.bfs_bulk_datapath.cache.WriteReq_mshr_miss_latency::.bfs_bulk_datapath.system.bfs_bulk_datapath.cache       158772                       # number of WriteReq MSHR miss cycles
system.bfs_bulk_datapath.cache.WriteReq_mshr_miss_latency::total       158772                       # number of WriteReq MSHR miss cycles
system.bfs_bulk_datapath.cache.HardPFReq_mshr_miss_latency::.bfs_bulk_datapath.cache.prefetcher     86215048                       # number of HardPFReq MSHR miss cycles
system.bfs_bulk_datapath.cache.HardPFReq_mshr_miss_latency::total     86215048                       # number of HardPFReq MSHR miss cycles
system.bfs_bulk_datapath.cache.demand_mshr_miss_latency::.bfs_bulk_datapath.system.bfs_bulk_datapath.cache     63981708                       # number of demand (read+write) MSHR miss cycles
system.bfs_bulk_datapath.cache.demand_mshr_miss_latency::total     63981708                       # number of demand (read+write) MSHR miss cycles
system.bfs_bulk_datapath.cache.overall_mshr_miss_latency::.bfs_bulk_datapath.system.bfs_bulk_datapath.cache     63981708                       # number of overall MSHR miss cycles
system.bfs_bulk_datapath.cache.overall_mshr_miss_latency::.bfs_bulk_datapath.cache.prefetcher     86215048                       # number of overall MSHR miss cycles
system.bfs_bulk_datapath.cache.overall_mshr_miss_latency::total    150196756                       # number of overall MSHR miss cycles
system.bfs_bulk_datapath.cache.ReadReq_mshr_miss_rate::.bfs_bulk_datapath.system.bfs_bulk_datapath.cache     0.161703                       # mshr miss rate for ReadReq accesses
system.bfs_bulk_datapath.cache.ReadReq_mshr_miss_rate::total     0.161703                       # mshr miss rate for ReadReq accesses
system.bfs_bulk_datapath.cache.WriteReq_mshr_miss_rate::.bfs_bulk_datapath.system.bfs_bulk_datapath.cache     0.008403                       # mshr miss rate for WriteReq accesses
system.bfs_bulk_datapath.cache.WriteReq_mshr_miss_rate::total     0.008403                       # mshr miss rate for WriteReq accesses
system.bfs_bulk_datapath.cache.HardPFReq_mshr_miss_rate::.bfs_bulk_datapath.cache.prefetcher          inf                       # mshr miss rate for HardPFReq accesses
system.bfs_bulk_datapath.cache.HardPFReq_mshr_miss_rate::total          inf                       # mshr miss rate for HardPFReq accesses
system.bfs_bulk_datapath.cache.demand_mshr_miss_rate::.bfs_bulk_datapath.system.bfs_bulk_datapath.cache     0.152730                       # mshr miss rate for demand accesses
system.bfs_bulk_datapath.cache.demand_mshr_miss_rate::total     0.152730                       # mshr miss rate for demand accesses
system.bfs_bulk_datapath.cache.overall_mshr_miss_rate::.bfs_bulk_datapath.system.bfs_bulk_datapath.cache     0.152730                       # mshr miss rate for overall accesses
system.bfs_bulk_datapath.cache.overall_mshr_miss_rate::.bfs_bulk_datapath.cache.prefetcher          inf                       # mshr miss rate for overall accesses
system.bfs_bulk_datapath.cache.overall_mshr_miss_rate::total     0.371864                       # mshr miss rate for overall accesses
system.bfs_bulk_datapath.cache.ReadReq_avg_mshr_miss_latency::.bfs_bulk_datapath.system.bfs_bulk_datapath.cache 103106.520194                       # average ReadReq mshr miss latency
system.bfs_bulk_datapath.cache.ReadReq_avg_mshr_miss_latency::total 103106.520194                       # average ReadReq mshr miss latency
system.bfs_bulk_datapath.cache.WriteReq_avg_mshr_miss_latency::.bfs_bulk_datapath.system.bfs_bulk_datapath.cache        79386                       # average WriteReq mshr miss latency
system.bfs_bulk_datapath.cache.WriteReq_avg_mshr_miss_latency::total        79386                       # average WriteReq mshr miss latency
system.bfs_bulk_datapath.cache.HardPFReq_avg_mshr_miss_latency::.bfs_bulk_datapath.cache.prefetcher 96762.118967                       # average HardPFReq mshr miss latency
system.bfs_bulk_datapath.cache.HardPFReq_avg_mshr_miss_latency::total 96762.118967                       # average HardPFReq mshr miss latency
system.bfs_bulk_datapath.cache.demand_avg_mshr_miss_latency::.bfs_bulk_datapath.system.bfs_bulk_datapath.cache 103030.125604                       # average overall mshr miss latency
system.bfs_bulk_datapath.cache.demand_avg_mshr_miss_latency::total 103030.125604                       # average overall mshr miss latency
system.bfs_bulk_datapath.cache.overall_avg_mshr_miss_latency::.bfs_bulk_datapath.system.bfs_bulk_datapath.cache 103030.125604                       # average overall mshr miss latency
system.bfs_bulk_datapath.cache.overall_avg_mshr_miss_latency::.bfs_bulk_datapath.cache.prefetcher 96762.118967                       # average overall mshr miss latency
system.bfs_bulk_datapath.cache.overall_avg_mshr_miss_latency::total 99336.478836                       # average overall mshr miss latency
system.bfs_bulk_datapath.cache.replacements         1000                       # number of replacements
system.cpu_clk_domain.clock                       500                       # Clock period in ticks
system.membus.snoop_filter.tot_requests          2512                       # Total number of requests made to the snoop filter.
system.membus.snoop_filter.hit_single_requests         1000                       # Number of requests hitting in the snoop filter with a single holder of the requested data.
system.membus.snoop_filter.hit_multi_requests            0                       # Number of requests hitting in the snoop filter with multiple (>1) holders of the requested data.
system.membus.snoop_filter.tot_snoops               0                       # Total number of snoops made to the snoop filter.
system.membus.snoop_filter.hit_single_snoops            0                       # Number of snoops hitting in the snoop filter with a single holder of the requested data.
system.membus.snoop_filter.hit_multi_snoops            0                       # Number of snoops hitting in the snoop filter with multiple (>1) holders of the requested data.
system.membus.pwrStateResidencyTicks::UNDEFINED     97410000                       # Cumulative time (in ticks) in various power states
system.membus.trans_dist::ReadResp               1510                       # Transaction distribution
system.membus.trans_dist::CleanEvict             1000                       # Transaction distribution
system.membus.trans_dist::ReadExReq                 2                       # Transaction distribution
system.membus.trans_dist::ReadExResp                2                       # Transaction distribution
system.membus.trans_dist::ReadSharedReq          1510                       # Transaction distribution
system.membus.pkt_count_system.bfs_bulk_datapath.cache.mem_side::system.mem_ctrls.port         4024                       # Packet count per connected master and slave (bytes)
system.membus.pkt_count::total                   4024                       # Packet count per connected master and slave (bytes)
system.membus.pkt_size_system.bfs_bulk_datapath.cache.mem_side::system.mem_ctrls.port        48384                       # Cumulative packet size per connected master and slave (bytes)
system.membus.pkt_size::total                   48384                       # Cumulative packet size per connected master and slave (bytes)
system.membus.snoops                                0                       # Total snoops (count)
system.membus.snoopTraffic                          0                       # Total snoop traffic (bytes)
system.membus.snoop_fanout::samples              1512                       # Request fanout histogram
system.membus.snoop_fanout::mean                    0                       # Request fanout histogram
system.membus.snoop_fanout::stdev                   0                       # Request fanout histogram
system.membus.snoop_fanout::underflows              0      0.00%      0.00% # Request fanout histogram
system.membus.snoop_fanout::0                    1512    100.00%    100.00% # Request fanout histogram
system.membus.snoop_fanout::1                       0      0.00%    100.00% # Request fanout histogram
system.membus.snoop_fanout::2                       0      0.00%    100.00% # Request fanout histogram
system.membus.snoop_fanout::overflows               0      0.00%    100.00% # Request fanout histogram
system.membus.snoop_fanout::min_value               0                       # Request fanout histogram
system.membus.snoop_fanout::max_value               0                       # Request fanout histogram
system.membus.snoop_fanout::total                1512                       # Request fanout histogram
system.membus.reqLayer0.occupancy             6405318                       # Layer occupancy (ticks)
system.membus.reqLayer0.utilization               6.6                       # Layer utilization (%)
system.membus.respLayer1.occupancy            9545400                       # Layer occupancy (ticks)
system.membus.respLayer1.utilization              9.8                       # Layer utilization (%)

---------- End Simulation Statistics   ----------
