
---------- Begin Simulation Statistics ----------
sim_seconds                                  0.000162                       # Number of seconds simulated
sim_ticks                                   162470000                       # Number of ticks simulated
final_tick                                  162470000                       # Number of ticks from beginning of simulation (restored from checkpoints and never reset)
sim_freq                                 1000000000000                       # Frequency of simulated ticks
host_tick_rate                              266312463                       # Simulator tick rate (ticks/s)
host_mem_usage                                4927328                       # Number of bytes of host memory used
host_seconds                                     0.61                       # Real time elapsed on the host
system.voltage_domain.voltage                       1                       # Voltage in Volts
system.clk_domain.clock                          5000                       # Clock period in ticks
system.mem_ctrls.pwrStateResidencyTicks::UNDEFINED    162470000                       # Cumulative time (in ticks) in various power states
system.mem_ctrls.bytes_read::.bfs_queue_datapath.system.bfs_queue_datapath.cache        22976                       # Number of bytes read from this memory
system.mem_ctrls.bytes_read::.bfs_queue_datapath.cache.prefetcher        28640                       # Number of bytes read from this memory
system.mem_ctrls.bytes_read::total              51616                       # Number of bytes read from this memory
system.mem_ctrls.bytes_written::.writebacks           64                       # Number of bytes written to this memory
system.mem_ctrls.bytes_written::total              64                       # Number of bytes written to this memory
system.mem_ctrls.num_reads::.bfs_queue_datapath.system.bfs_queue_datapath.cache          718                       # Number of read requests responded to by this memory
system.mem_ctrls.num_reads::.bfs_queue_datapath.cache.prefetcher          895                       # Number of read requests responded to by this memory
system.mem_ctrls.num_reads::total                1613                       # Number of read requests responded to by this memory
system.mem_ctrls.num_writes::.writebacks            2                       # Number of write requests responded to by this memory
system.mem_ctrls.num_writes::total                  2                       # Number of write requests responded to by this memory
system.mem_ctrls.bw_read::.bfs_queue_datapath.system.bfs_queue_datapath.cache    141416877                       # Total read bandwidth from this memory (bytes/s)
system.mem_ctrls.bw_read::.bfs_queue_datapath.cache.prefetcher    176278698                       # Total read bandwidth from this memory (bytes/s)
system.mem_ctrls.bw_read::total             317695575                       # Total read bandwidth from this memory (bytes/s)
system.mem_ctrls.bw_write::.writebacks         393919                       # Write bandwidth from this memory (bytes/s)
system.mem_ctrls.bw_write::total               393919                       # Write bandwidth from this memory (bytes/s)
system.mem_ctrls.bw_total::.writebacks         393919                       # Total bandwidth to/from this memory (bytes/s)
system.mem_ctrls.bw_total::.bfs_queue_datapath.system.bfs_queue_datapath.cache    141416877                       # Total bandwidth to/from this memory (bytes/s)
system.mem_ctrls.bw_total::.bfs_queue_datapath.cache.prefetcher    176278698                       # Total bandwidth to/from this memory (bytes/s)
system.mem_ctrls.bw_total::total            318089493                       # Total bandwidth to/from this memory (bytes/s)
system.mem_ctrls.avgPriority_.writebacks::samples         2.00                       # Average QoS priority value for accepted requests
system.mem_ctrls.avgPriority_.bfs_queue_datapath.system.bfs_queue_datapath.cache::samples       717.00                       # Average QoS priority value for accepted requests
system.mem_ctrls.avgPriority_.bfs_queue_datapath.cache.prefetcher::samples       895.00                       # Average QoS priority value for accepted requests
system.mem_ctrls.priorityMinLatency      0.000000018750                       # per QoS priority minimum request to response latency (s)
system.mem_ctrls.priorityMaxLatency      0.000001099750                       # per QoS priority maximum request to response latency (s)
system.mem_ctrls.numReadWriteTurnArounds            0                       # Number of turnarounds from READ to WRITE
system.mem_ctrls.numWriteReadTurnArounds            0                       # Number of turnarounds from WRITE to READ
system.mem_ctrls.numStayReadState                3107                       # Number of times bus staying in READ state
system.mem_ctrls.numStayWriteState                  0                       # Number of times bus staying in WRITE state
system.mem_ctrls.readReqs                        1613                       # Number of read requests accepted
system.mem_ctrls.writeReqs                          2                       # Number of write requests accepted
system.mem_ctrls.readBursts                      1613                       # Number of DRAM read bursts, including those serviced by the write queue
system.mem_ctrls.writeBursts                        2                       # Number of DRAM write bursts, including those merged in the write queue
system.mem_ctrls.bytesReadDRAM                 103168                       # Total number of bytes read from DRAM
system.mem_ctrls.bytesReadWrQ                      64                       # Total number of bytes read from write queue
system.mem_ctrls.bytesWritten                       0                       # Total number of bytes written to DRAM
system.mem_ctrls.bytesReadSys                   51616                       # Total read bytes from the system interface side
system.mem_ctrls.bytesWrittenSys                   64                       # Total written bytes from the system interface side
system.mem_ctrls.servicedByWrQ                      1                       # Number of DRAM read bursts serviced by the write queue
system.mem_ctrls.mergedWrBursts                     0                       # Number of DRAM write bursts merged with an existing one
system.mem_ctrls.neitherReadNorWriteReqs            0                       # Number of requests that are neither read nor write
system.mem_ctrls.perBankRdBursts::0                 0                       # Per bank write bursts
system.mem_ctrls.perBankRdBursts::1                 0                       # Per bank write bursts
system.mem_ctrls.perBankRdBursts::2                 0                       # Per bank write bursts
system.mem_ctrls.perBankRdBursts::3                 0                       # Per bank write bursts
system.mem_ctrls.perBankRdBursts::4                 0                       # Per bank write bursts
system.mem_ctrls.perBankRdBursts::5                 0                       # Per bank write bursts
system.mem_ctrls.perBankRdBursts::6                58                       # Per bank write bursts
system.mem_ctrls.perBankRdBursts::7               339                       # Per bank write bursts
system.mem_ctrls.perBankRdBursts::8               376                       # Per bank write bursts
system.mem_ctrls.perBankRdBursts::9               361                       # Per bank write bursts
system.mem_ctrls.perBankRdBursts::10              336                       # Per bank write bursts
system.mem_ctrls.perBankRdBursts::11              142                       # Per bank write bursts
system.mem_ctrls.perBankRdBursts::12                0                       # Per bank write bursts
system.mem_ctrls.perBankRdBursts::13                0                       # Per bank write bursts
system.mem_ctrls.perBankRdBursts::14                0                       # Per bank write bursts
system.mem_ctrls.perBankRdBursts::15                0                       # Per bank write bursts
system.mem_ctrls.perBankWrBursts::0                 0                       # Per bank write bursts
system.mem_ctrls.perBankWrBursts::1                 0                       # Per bank write bursts
system.mem_ctrls.perBankWrBursts::2                 0                       # Per bank write bursts
system.mem_ctrls.perBankWrBursts::3                 0                       # Per bank write bursts
system.mem_ctrls.perBankWrBursts::4                 0                       # Per bank write bursts
system.mem_ctrls.perBankWrBursts::5                 0                       # Per bank write bursts
system.mem_ctrls.perBankWrBursts::6                 0                       # Per bank write bursts
system.mem_ctrls.perBankWrBursts::7                 0                       # Per bank write bursts
system.mem_ctrls.perBankWrBursts::8                 0                       # Per bank write bursts
system.mem_ctrls.perBankWrBursts::9                 0                       # Per bank write bursts
system.mem_ctrls.perBankWrBursts::10                0                       # Per bank write bursts
system.mem_ctrls.perBankWrBursts::11                0                       # Per bank write bursts
system.mem_ctrls.perBankWrBursts::12                0                       # Per bank write bursts
system.mem_ctrls.perBankWrBursts::13                0                       # Per bank write bursts
system.mem_ctrls.perBankWrBursts::14                0                       # Per bank write bursts
system.mem_ctrls.perBankWrBursts::15                0                       # Per bank write bursts
system.mem_ctrls.numRdRetry                         0                       # Number of times read queue was full causing retry
system.mem_ctrls.numWrRetry                         0                       # Number of times write queue was full causing retry
system.mem_ctrls.totGap                     160875000                       # Total gap between requests
system.mem_ctrls.readPktSize::0                     0                       # Read request sizes (log2)
system.mem_ctrls.readPktSize::1                     0                       # Read request sizes (log2)
system.mem_ctrls.readPktSize::2                     0                       # Read request sizes (log2)
system.mem_ctrls.readPktSize::3                     0                       # Read request sizes (log2)
system.mem_ctrls.readPktSize::4                     0                       # Read request sizes (log2)
system.mem_ctrls.readPktSize::5                  1613                       # Read request sizes (log2)
system.mem_ctrls.readPktSize::6                     0                       # Read request sizes (log2)
system.mem_ctrls.writePktSize::0                    0                       # Write request sizes (log2)
system.mem_ctrls.writePktSize::1                    0                       # Write request sizes (log2)
system.mem_ctrls.writePktSize::2                    0                       # Write request sizes (log2)
system.mem_ctrls.writePktSize::3                    0                       # Write request sizes (log2)
system.mem_ctrls.writePktSize::4                    0                       # Write request sizes (log2)
system.mem_ctrls.writePktSize::5                    2                       # Write request sizes (log2)
system.mem_ctrls.writePktSize::6                    0                       # Write request sizes (log2)
system.mem_ctrls.rdQLenPdf::0                     380                       # What read queue length does an incoming req see
system.mem_ctrls.rdQLenPdf::1                     336                       # What read queue length does an incoming req see
system.mem_ctrls.rdQLenPdf::2                     186                       # What read queue length does an incoming req see
system.mem_ctrls.rdQLenPdf::3                     165                       # What read queue length does an incoming req see
system.mem_ctrls.rdQLenPdf::4                     267                       # What read queue length does an incoming req see
system.mem_ctrls.rdQLenPdf::5                      59                       # What read queue length does an incoming req see
system.mem_ctrls.rdQLenPdf::6                      38                       # What read queue length does an incoming req see
system.mem_ctrls.rdQLenPdf::7                     138                       # What read queue length does an incoming req see
system.mem_ctrls.rdQLenPdf::8                      16                       # What read queue length does an incoming req see
system.mem_ctrls.rdQLenPdf::9                       9                       # What read queue length does an incoming req see
system.mem_ctrls.rdQLenPdf::10                      8                       # What read queue length does an incoming req see
system.mem_ctrls.rdQLenPdf::11                      4                       # What read queue length does an incoming req see
system.mem_ctrls.rdQLenPdf::12                      3                       # What read queue length does an incoming req see
system.mem_ctrls.rdQLenPdf::13                      2                       # What read queue length does an incoming req see
system.mem_ctrls.rdQLenPdf::14                      1                       # What read queue length does an incoming req see
system.mem_ctrls.rdQLenPdf::15                      0                       # What read queue length does an incoming req see
system.mem_ctrls.rdQLenPdf::16                      0                       # What read queue length does an incoming req see
system.mem_ctrls.rdQLenPdf::17                      0                       # What read queue length does an incoming req see
system.mem_ctrls.rdQLenPdf::18                      0                       # What read queue length does an incoming req see
system.mem_ctrls.rdQLenPdf::19                      0                       # What read queue length does an incoming req see
system.mem_ctrls.rdQLenPdf::20                      0                       # What read queue length does an incoming req see
system.mem_ctrls.rdQLenPdf::21                      0                       # What read queue length does an incoming req see
system.mem_ctrls.rdQLenPdf::22                      0                       # What read queue length does an incoming req see
system.mem_ctrls.rdQLenPdf::23                      0                       # What read queue length does an incoming req see
system.mem_ctrls.rdQLenPdf::24                      0                       # What read queue length does an incoming req see
system.mem_ctrls.rdQLenPdf::25                      0                       # What read queue length does an incoming req see
system.mem_ctrls.rdQLenPdf::26                      0                       # What read queue length does an incoming req see
system.mem_ctrls.rdQLenPdf::27                      0                       # What read queue length does an incoming req see
system.mem_ctrls.rdQLenPdf::28                      0                       # What read queue length does an incoming req see
system.mem_ctrls.rdQLenPdf::29                      0                       # What read queue length does an incoming req see
system.mem_ctrls.rdQLenPdf::30                      0                       # What read queue length does an incoming req see
system.mem_ctrls.rdQLenPdf::31                      0                       # What read queue length does an incoming req see
system.mem_ctrls.wrQLenPdf::0                       1                       # What write queue length does an incoming req see
system.mem_ctrls.wrQLenPdf::1                       1                       # What write queue length does an incoming req see
system.mem_ctrls.wrQLenPdf::2                       0                       # What write queue length does an incoming req see
system.mem_ctrls.wrQLenPdf::3                       0                       # What write queue length does an incoming req see
system.mem_ctrls.wrQLenPdf::4                       0                       # What write queue length does an incoming req see
system.mem_ctrls.wrQLenPdf::5                       0                       # What write queue length does an incoming req see
system.mem_ctrls.wrQLenPdf::6                       0                       # What write queue length does an incoming req see
system.mem_ctrls.wrQLenPdf::7                       0                       # What write queue length does an incoming req see
system.mem_ctrls.wrQLenPdf::8                       0                       # What write queue length does an incoming req see
system.mem_ctrls.wrQLenPdf::9                       0                       # What write queue length does an incoming req see
system.mem_ctrls.wrQLenPdf::10                      0                       # What write queue length does an incoming req see
system.mem_ctrls.wrQLenPdf::11                      0                       # What write queue length does an incoming req see
system.mem_ctrls.wrQLenPdf::12                      0                       # What write queue length does an incoming req see
system.mem_ctrls.wrQLenPdf::13                      0                       # What write queue length does an incoming req see
system.mem_ctrls.wrQLenPdf::14                      0                       # What write queue length does an incoming req see
system.mem_ctrls.wrQLenPdf::15                      0                       # What write queue length does an incoming req see
system.mem_ctrls.wrQLenPdf::16                      0                       # What write queue length does an incoming req see
system.mem_ctrls.wrQLenPdf::17                      0                       # What write queue length does an incoming req see
system.mem_ctrls.wrQLenPdf::18                      0                       # What write queue length does an incoming req see
system.mem_ctrls.wrQLenPdf::19                      0                       # What write queue length does an incoming req see
system.mem_ctrls.wrQLenPdf::20                      0                       # What write queue length does an incoming req see
system.mem_ctrls.wrQLenPdf::21                      0                       # What write queue length does an incoming req see
system.mem_ctrls.wrQLenPdf::22                      0                       # What write queue length does an incoming req see
system.mem_ctrls.wrQLenPdf::23                      0                       # What write queue length does an incoming req see
system.mem_ctrls.wrQLenPdf::24                      0                       # What write queue length does an incoming req see
system.mem_ctrls.wrQLenPdf::25                      0                       # What write queue length does an incoming req see
system.mem_ctrls.wrQLenPdf::26                      0                       # What write queue length does an incoming req see
system.mem_ctrls.wrQLenPdf::27                      0                       # What write queue length does an incoming req see
system.mem_ctrls.wrQLenPdf::28                      0                       # What write queue length does an incoming req see
system.mem_ctrls.wrQLenPdf::29                      0                       # What write queue length does an incoming req see
system.mem_ctrls.wrQLenPdf::30                      0                       # What write queue length does an incoming req see
system.mem_ctrls.wrQLenPdf::31                      0                       # What write queue length does an incoming req see
system.mem_ctrls.wrQLenPdf::32                      0                       # What write queue length does an incoming req see
system.mem_ctrls.wrQLenPdf::33                      0                       # What write queue length does an incoming req see
system.mem_ctrls.wrQLenPdf::34                      0                       # What write queue length does an incoming req see
system.mem_ctrls.wrQLenPdf::35                      0                       # What write queue length does an incoming req see
system.mem_ctrls.wrQLenPdf::36                      0                       # What write queue length does an incoming req see
system.mem_ctrls.wrQLenPdf::37                      0                       # What write queue length does an incoming req see
system.mem_ctrls.wrQLenPdf::38                      0                       # What write queue length does an incoming req see
system.mem_ctrls.wrQLenPdf::39                      0                       # What write queue length does an incoming req see
system.mem_ctrls.wrQLenPdf::40                      0                       # What write queue length does an incoming req see
system.mem_ctrls.wrQLenPdf::41                      0                       # What write queue length does an incoming req see
system.mem_ctrls.wrQLenPdf::42                      0                       # What write queue length does an incoming req see
system.mem_ctrls.wrQLenPdf::43                      0                       # What write queue length does an incoming req see
system.mem_ctrls.wrQLenPdf::44                      0                       # What write queue length does an incoming req see
system.mem_ctrls.wrQLenPdf::45                      0                       # What write queue length does an incoming req see
system.mem_ctrls.wrQLenPdf::46                      0                       # What write queue length does an incoming req see
system.mem_ctrls.wrQLenPdf::47                      0                       # What write queue length does an incoming req see
system.mem_ctrls.wrQLenPdf::48                      0                       # What write queue length does an incoming req see
system.mem_ctrls.wrQLenPdf::49                      0                       # What write queue length does an incoming req see
system.mem_ctrls.wrQLenPdf::50                      0                       # What write queue length does an incoming req see
system.mem_ctrls.wrQLenPdf::51                      0                       # What write queue length does an incoming req see
system.mem_ctrls.wrQLenPdf::52                      0                       # What write queue length does an incoming req see
system.mem_ctrls.wrQLenPdf::53                      0                       # What write queue length does an incoming req see
system.mem_ctrls.wrQLenPdf::54                      0                       # What write queue length does an incoming req see
system.mem_ctrls.wrQLenPdf::55                      0                       # What write queue length does an incoming req see
system.mem_ctrls.wrQLenPdf::56                      0                       # What write queue length does an incoming req see
system.mem_ctrls.wrQLenPdf::57                      0                       # What write queue length does an incoming req see
system.mem_ctrls.wrQLenPdf::58                      0                       # What write queue length does an incoming req see
system.mem_ctrls.wrQLenPdf::59                      0                       # What write queue length does an incoming req see
system.mem_ctrls.wrQLenPdf::60                      0                       # What write queue length does an incoming req see
system.mem_ctrls.wrQLenPdf::61                      0                       # What write queue length does an incoming req see
system.mem_ctrls.wrQLenPdf::62                      0                       # What write queue length does an incoming req see
system.mem_ctrls.wrQLenPdf::63                      0                       # What write queue length does an incoming req see
system.mem_ctrls.bytesPerActivate::samples          144                       # Bytes accessed per row activation
system.mem_ctrls.bytesPerActivate::mean    712.888889                       # Bytes accessed per row activation
system.mem_ctrls.bytesPerActivate::gmean   567.319500                       # Bytes accessed per row activation
system.mem_ctrls.bytesPerActivate::stdev   354.815329                       # Bytes accessed per row activation
system.mem_ctrls.bytesPerActivate::0-127            7      4.86%      4.86% # Bytes accessed per row activation
system.mem_ctrls.bytesPerActivate::128-255           14      9.72%     14.58% # Bytes accessed per row activation
system.mem_ctrls.bytesPerActivate::256-383           13      9.03%     23.61% # Bytes accessed per row activation
system.mem_ctrls.bytesPerActivate::384-511           10      6.94%     30.56% # Bytes accessed per row activation
system.mem_ctrls.bytesPerActivate::512-639           13      9.03%     39.58% # Bytes accessed per row activation
system.mem_ctrls.bytesPerActivate::640-767            5      3.47%     43.06% # Bytes accessed per row activation
system.mem_ctrls.bytesPerActivate::768-895            7      4.86%     47.92% # Bytes accessed per row activation
system.mem_ctrls.bytesPerActivate::896-1023            8      5.56%     53.47% # Bytes accessed per row activation
system.mem_ctrls.bytesPerActivate::1024-1151           67     46.53%    100.00% # Bytes accessed per row activation
system.mem_ctrls.bytesPerActivate::total          144                       # Bytes accessed per row activation
system.mem_ctrls.masterReadBytes::.bfs_queue_datapath.system.bfs_queue_datapath.cache        22944                       # Per-master bytes read from memory
system.mem_ctrls.masterReadBytes::.bfs_queue_datapath.cache.prefetcher        28640                       # Per-master bytes read from memory
system.mem_ctrls.masterReadRate::.bfs_queue_datapath.system.bfs_queue_datapath.cache 141219917.523235052824                       # Per-master bytes read from memory rate (Bytes/sec)
system.mem_ctrls.masterReadRate::.bfs_queue_datapath.cache.prefetcher 176278697.605711817741                       # Per-master bytes read from memory rate (Bytes/sec)
system.mem_ctrls.masterReadAccesses::.bfs_queue_datapath.system.bfs_queue_datapath.cache          718                       # Per-master read serviced memory accesses
system.mem_ctrls.masterReadAccesses::.bfs_queue_datapath.cache.prefetcher          895                       # Per-master read serviced memory accesses
system.mem_ctrls.masterWriteAccesses::.writebacks            2                       # Per-master write serviced memory accesses
system.mem_ctrls.masterReadTotalLat::.bfs_queue_datapath.system.bfs_queue_datapath.cache     27026751                       # Per-master read total memory access latency
system.mem_ctrls.masterReadTotalLat::.bfs_queue_datapath.cache.prefetcher     42885206                       # Per-master read total memory access latency
system.mem_ctrls.masterReadAvgLat::.bfs_queue_datapath.system.bfs_queue_datapath.cache     37641.71                       # Per-master read average memory access latency
system.mem_ctrls.masterReadAvgLat::.bfs_queue_datapath.cache.prefetcher     47916.43                       # Per-master read average memory access latency
system.mem_ctrls.masterWriteAvgLat::.writebacks         0.00                       # Per-master write average memory access latency
system.mem_ctrls.totQLat                     39686957                       # Total ticks spent queuing
system.mem_ctrls.totMemAccLat                69911957                       # Total ticks spent from burst creation until serviced by the DRAM
system.mem_ctrls.totBusLat                    8060000                       # Total ticks spent in databus transfers
system.mem_ctrls.avgQLat                     24619.70                       # Average queueing delay per DRAM burst
system.mem_ctrls.avgBusLat                    5000.00                       # Average bus latency per DRAM burst
system.mem_ctrls.avgMemAccLat                43369.70                       # Average memory access latency per DRAM burst
system.mem_ctrls.avgRdBW                       635.00                       # Average DRAM read bandwidth in MiByte/s
system.mem_ctrls.avgWrBW                         0.00                       # Average achieved write bandwidth in MiByte/s
system.mem_ctrls.avgRdBWSys                    317.70                       # Average system read bandwidth in MiByte/s
system.mem_ctrls.avgWrBWSys                      0.39                       # Average system write bandwidth in MiByte/s
system.mem_ctrls.peakBW                      12800.00                       # Theoretical peak bandwidth in MiByte/s
system.mem_ctrls.busUtil                         4.96                       # Data bus utilization in percentage
system.mem_ctrls.busUtilRead                     4.96                       # Data bus utilization in percentage for reads
system.mem_ctrls.busUtilWrite                    0.00                       # Data bus utilization in percentage for writes
system.mem_ctrls.avgRdQLen                       2.43                       # Average read queue length when enqueuing
system.mem_ctrls.avgWrQLen                       1.48                       # Average write queue length when enqueuing
system.mem_ctrls.readRowHits                     1466                       # Number of row buffer hits during reads
system.mem_ctrls.writeRowHits                       0                       # Number of row buffer hits during writes
system.mem_ctrls.readRowHitRate                 90.94                       # Row buffer hit rate for reads
system.mem_ctrls.writeRowHitRate                 0.00                       # Row buffer hit rate for writes
system.mem_ctrls.avgGap                      99613.00                       # Average gap between requests
system.mem_ctrls.pageHitRate                    90.83                       # Row buffer hit rate, read and write combined
system.mem_ctrls_0.actEnergy                   335580                       # Energy for activate commands per rank (pJ)
system.mem_ctrls_0.preEnergy                   170775                       # Energy for precharge commands per rank (pJ)
system.mem_ctrls_0.readEnergy                 2834580                       # Energy for read commands per rank (pJ)
system.mem_ctrls_0.writeEnergy                      0                       # Energy for write commands per rank (pJ)
system.mem_ctrls_0.refreshEnergy         12292800.000000                       # Energy for refresh commands per rank (pJ)
system.mem_ctrls_0.actBackEnergy              5544960                       # Energy for active background per rank (pJ)
system.mem_ctrls_0.preBackEnergy               506400                       # Energy for precharge background per rank (pJ)
system.mem_ctrls_0.actPowerDownEnergy        64521720                       # Energy for active power-down per rank (pJ)
system.mem_ctrls_0.prePowerDownEnergy         2878560                       # Energy for precharge power-down per rank (pJ)
system.mem_ctrls_0.selfRefreshEnergy                0                       # Energy for self refresh per rank (pJ)
system.mem_ctrls_0.totalEnergy               89085375                       # Total energy per rank (pJ)
system.mem_ctrls_0.averagePower            548.318920                       # Core power per rank (mW)
system.mem_ctrls_0.totalIdleTime            147717739                       # Total Idle time Per DRAM Rank
system.mem_ctrls_0.memoryStateTime::IDLE       750000                       # Time in different power states
system.mem_ctrls_0.memoryStateTime::REF       5200000                       # Time in different power states
system.mem_ctrls_0.memoryStateTime::SREF            0                       # Time in different power states
system.mem_ctrls_0.memoryStateTime::PRE_PDN      7498500                       # Time in different power states
system.mem_ctrls_0.memoryStateTime::ACT       7482011                       # Time in different power states
system.mem_ctrls_0.memoryStateTime::ACT_PDN    141539489                       # Time in different power states
system.mem_ctrls_1.actEnergy                   706860                       # Energy for activate commands per rank (pJ)
system.mem_ctrls_1.preEnergy                   375705                       # Energy for precharge commands per rank (pJ)
system.mem_ctrls_1.readEnergy                 8675100                       # Energy for read commands per rank (pJ)
system.mem_ctrls_1.writeEnergy                      0                       # Energy for write commands per rank (pJ)
system.mem_ctrls_1.refreshEnergy         11678160.000000                       # Energy for refresh commands per rank (pJ)
system.mem_ctrls_1.actBackEnergy              8198310                       # Energy for active background per rank (pJ)
system.mem_ctrls_1.preBackEnergy               628800                       # Energy for precharge background per rank (pJ)
system.mem_ctrls_1.actPowerDownEnergy        52464510                       # Energy for active power-down per rank (pJ)
system.mem_ctrls_1.prePowerDownEnergy         6300000                       # Energy for precharge power-down per rank (pJ)
system.mem_ctrls_1.selfRefreshEnergy          3838980                       # Energy for self refresh per rank (pJ)
system.mem_ctrls_1.totalEnergy               92866425                       # Total energy per rank (pJ)
system.mem_ctrls_1.averagePower            571.591217                       # Core power per rank (mW)
system.mem_ctrls_1.totalIdleTime            140584709                       # Total Idle time Per DRAM Rank
system.mem_ctrls_1.memoryStateTime::IDLE       892000                       # Time in different power states
system.mem_ctrls_1.memoryStateTime::REF       4940000                       # Time in different power states
system.mem_ctrls_1.memoryStateTime::SREF     11394250                       # Time in different power states
system.mem_ctrls_1.memoryStateTime::PRE_PDN     16408502                       # Time in different power states
system.mem_ctrls_1.memoryStateTime::ACT      13748041                       # Time in different power states
system.mem_ctrls_1.memoryStateTime::ACT_PDN    115087207                       # Time in different power states
system.pwrStateResidencyTicks::UNDEFINED    162470000                       # Cumulative time (in ticks) in various power states
system.cpu_voltage_domain.voltage                   1                       # Voltage in Volts
system.bfs_queue_datapath.clk_domain.clock         5000                       # Clock period in ticks
system.bfs_queue_datapath.pwrStateResidencyTicks::UNDEFINED    162470000                       # Cumulative time (in ticks) in various power states
system.bfs_queue_datapath.cache_queue_reads            0                       # Number of reads to the bfs_queue_datapath.cache_queue
system.bfs_queue_datapath.cache_queue_writes            0                       # Number of writes to the bfs_queue_datapath.cache_queue
system.bfs_queue_datapath.total_dcache_loads         2857                       # Total number of dcache loads
system.bfs_queue_datapath.total_dcache_stores          474                       # Total number of dcache stores.
system.bfs_queue_datapath.dcache_latency::samples         3331                       # Histogram of dcache total access latency
system.bfs_queue_datapath.dcache_latency::mean 45746.295407                       # Histogram of dcache total access latency
system.bfs_queue_datapath.dcache_latency::gmean 12881.718478                       # Histogram of dcache total access latency
system.bfs_queue_datapath.dcache_latency::stdev 76831.309872                       # Histogram of dcache total access latency
system.bfs_queue_datapath.dcache_latency::0-32767         2375     71.30%     71.30% # Histogram of dcache total access latency
system.bfs_queue_datapath.dcache_latency::32768-65535           39      1.17%     72.47% # Histogram of dcache total access latency
system.bfs_queue_datapath.dcache_latency::65536-98303           16      0.48%     72.95% # Histogram of dcache total access latency
system.bfs_queue_datapath.dcache_latency::98304-131071          491     14.74%     87.69% # Histogram of dcache total access latency
system.bfs_queue_datapath.dcache_latency::131072-163839          167      5.01%     92.70% # Histogram of dcache total access latency
system.bfs_queue_datapath.dcache_latency::163840-196607          108      3.24%     95.95% # Histogram of dcache total access latency
system.bfs_queue_datapath.dcache_latency::196608-229375           46      1.38%     97.33% # Histogram of dcache total access latency
system.bfs_queue_datapath.dcache_latency::229376-262143           41      1.23%     98.56% # Histogram of dcache total access latency
system.bfs_queue_datapath.dcache_latency::262144-294911           23      0.69%     99.25% # Histogram of dcache total access latency
system.bfs_queue_datapath.dcache_latency::294912-327679           10      0.30%     99.55% # Histogram of dcache total access latency
system.bfs_queue_datapath.dcache_latency::327680-360447            3      0.09%     99.64% # Histogram of dcache total access latency
system.bfs_queue_datapath.dcache_latency::360448-393215            0      0.00%     99.64% # Histogram of dcache total access latency
system.bfs_queue_datapath.dcache_latency::393216-425983            0      0.00%     99.64% # Histogram of dcache total access latency
system.bfs_queue_datapath.dcache_latency::425984-458751            0      0.00%     99.64% # Histogram of dcache total access latency
system.bfs_queue_datapath.dcache_latency::458752-491519            0      0.00%     99.64% # Histogram of dcache total access latency
system.bfs_queue_datapath.dcache_latency::491520-524287            0      0.00%     99.64% # Histogram of dcache total access latency
system.bfs_queue_datapath.dcache_latency::524288-557055            0      0.00%     99.64% # Histogram of dcache total access latency
system.bfs_queue_datapath.dcache_latency::557056-589823            0      0.00%     99.64% # Histogram of dcache total access latency
system.bfs_queue_datapath.dcache_latency::589824-622591            0      0.00%     99.64% # Histogram of dcache total access latency
system.bfs_queue_datapath.dcache_latency::622592-655359            5      0.15%     99.79% # Histogram of dcache total access latency
system.bfs_queue_datapath.dcache_latency::655360-688127            4      0.12%     99.91% # Histogram of dcache total access latency
system.bfs_queue_datapath.dcache_latency::688128-720895            2      0.06%     99.97% # Histogram of dcache total access latency
system.bfs_queue_datapath.dcache_latency::720896-753663            0      0.00%     99.97% # Histogram of dcache total access latency
system.bfs_queue_datapath.dcache_latency::753664-786431            1      0.03%    100.00% # Histogram of dcache total access latency
system.bfs_queue_datapath.dcache_latency::786432-819199            0      0.00%    100.00% # Histogram of dcache total access latency
system.bfs_queue_datapath.dcache_latency::819200-851967            0      0.00%    100.00% # Histogram of dcache total access latency
system.bfs_queue_datapath.dcache_latency::851968-884735            0      0.00%    100.00% # Histogram of dcache total access latency
system.bfs_queue_datapath.dcache_latency::884736-917503            0      0.00%    100.00% # Histogram of dcache total access latency
system.bfs_queue_datapath.dcache_latency::917504-950271            0      0.00%    100.00% # Histogram of dcache total access latency
system.bfs_queue_datapath.dcache_latency::950272-983039            0      0.00%    100.00% # Histogram of dcache total access latency
system.bfs_queue_datapath.dcache_latency::total         3331                       # Histogram of dcache total access latency
system.bfs_queue_datapath.dcache_queue_time::samples         3326                       # Histogram of time dcache request spent in queue
system.bfs_queue_datapath.dcache_queue_time::mean 110718.580878                       # Histogram of time dcache request spent in queue
system.bfs_queue_datapath.dcache_queue_time::gmean 109256.035652                       # Histogram of time dcache request spent in queue
system.bfs_queue_datapath.dcache_queue_time::stdev 21745.504015                       # Histogram of time dcache request spent in queue
system.bfs_queue_datapath.dcache_queue_time::0-8191            0      0.00%      0.00% # Histogram of time dcache request spent in queue
system.bfs_queue_datapath.dcache_queue_time::8192-16383            0      0.00%      0.00% # Histogram of time dcache request spent in queue
system.bfs_queue_datapath.dcache_queue_time::16384-24575            0      0.00%      0.00% # Histogram of time dcache request spent in queue
system.bfs_queue_datapath.dcache_queue_time::24576-32767            0      0.00%      0.00% # Histogram of time dcache request spent in queue
system.bfs_queue_datapath.dcache_queue_time::32768-40959            0      0.00%      0.00% # Histogram of time dcache request spent in queue
system.bfs_queue_datapath.dcache_queue_time::40960-49151            0      0.00%      0.00% # Histogram of time dcache request spent in queue
system.bfs_queue_datapath.dcache_queue_time::49152-57343            0      0.00%      0.00% # Histogram of time dcache request spent in queue
system.bfs_queue_datapath.dcache_queue_time::57344-65535            0      0.00%      0.00% # Histogram of time dcache request spent in queue
system.bfs_queue_datapath.dcache_queue_time::65536-73727            0      0.00%      0.00% # Histogram of time dcache request spent in queue
system.bfs_queue_datapath.dcache_queue_time::73728-81919            0      0.00%      0.00% # Histogram of time dcache request spent in queue
system.bfs_queue_datapath.dcache_queue_time::81920-90111            0      0.00%      0.00% # Histogram of time dcache request spent in queue
system.bfs_queue_datapath.dcache_queue_time::90112-98303            0      0.00%      0.00% # Histogram of time dcache request spent in queue
system.bfs_queue_datapath.dcache_queue_time::98304-106495         3068     92.24%     92.24% # Histogram of time dcache request spent in queue
system.bfs_queue_datapath.dcache_queue_time::106496-114687           18      0.54%     92.78% # Histogram of time dcache request spent in queue
system.bfs_queue_datapath.dcache_queue_time::114688-122879           11      0.33%     93.11% # Histogram of time dcache request spent in queue
system.bfs_queue_datapath.dcache_queue_time::122880-131071            8      0.24%     93.36% # Histogram of time dcache request spent in queue
system.bfs_queue_datapath.dcache_queue_time::131072-139263            4      0.12%     93.48% # Histogram of time dcache request spent in queue
system.bfs_queue_datapath.dcache_queue_time::139264-147455            8      0.24%     93.72% # Histogram of time dcache request spent in queue
system.bfs_queue_datapath.dcache_queue_time::147456-155647           13      0.39%     94.11% # Histogram of time dcache request spent in queue
system.bfs_queue_datapath.dcache_queue_time::155648-163839            8      0.24%     94.35% # Histogram of time dcache request spent in queue
system.bfs_queue_datapath.dcache_queue_time::163840-172031           17      0.51%     94.86% # Histogram of time dcache request spent in queue
system.bfs_queue_datapath.dcache_queue_time::172032-180223           24      0.72%     95.58% # Histogram of time dcache request spent in queue
system.bfs_queue_datapath.dcache_queue_time::180224-188415           20      0.60%     96.18% # Histogram of time dcache request spent in queue
system.bfs_queue_datapath.dcache_queue_time::188416-196607           25      0.75%     96.93% # Histogram of time dcache request spent in queue
system.bfs_queue_datapath.dcache_queue_time::196608-204799           13      0.39%     97.32% # Histogram of time dcache request spent in queue
system.bfs_queue_datapath.dcache_queue_time::204800-212991           82      2.47%     99.79% # Histogram of time dcache request spent in queue
system.bfs_queue_datapath.dcache_queue_time::212992-221183            7      0.21%    100.00% # Histogram of time dcache request spent in queue
system.bfs_queue_datapath.dcache_queue_time::221184-229375            0      0.00%    100.00% # Histogram of time dcache request spent in queue
system.bfs_queue_datapath.dcache_queue_time::229376-237567            0      0.00%    100.00% # Histogram of time dcache request spent in queue
system.bfs_queue_datapath.dcache_queue_time::237568-245759            0      0.00%    100.00% # Histogram of time dcache request spent in queue
system.bfs_queue_datapath.dcache_queue_time::total         3326                       # Histogram of time dcache request spent in queue
system.bfs_queue_datapath.total_acp_loads            0                       # Total number of ACP loads
system.bfs_queue_datapath.total_acp_stores            0                       # Total number of ACP stores.
system.bfs_queue_datapath.acp_latency::samples            0                       # Histogram of ACP transaction total latency
system.bfs_queue_datapath.acp_latency::mean          nan                       # Histogram of ACP transaction total latency
system.bfs_queue_datapath.acp_latency::gmean          nan                       # Histogram of ACP transaction total latency
system.bfs_queue_datapath.acp_latency::stdev          nan                       # Histogram of ACP transaction total latency
system.bfs_queue_datapath.acp_latency::0            0                       # Histogram of ACP transaction total latency
system.bfs_queue_datapath.acp_latency::1            0                       # Histogram of ACP transaction total latency
system.bfs_queue_datapath.acp_latency::2            0                       # Histogram of ACP transaction total latency
system.bfs_queue_datapath.acp_latency::3            0                       # Histogram of ACP transaction total latency
system.bfs_queue_datapath.acp_latency::4            0                       # Histogram of ACP transaction total latency
system.bfs_queue_datapath.acp_latency::5            0                       # Histogram of ACP transaction total latency
system.bfs_queue_datapath.acp_latency::6            0                       # Histogram of ACP transaction total latency
system.bfs_queue_datapath.acp_latency::7            0                       # Histogram of ACP transaction total latency
system.bfs_queue_datapath.acp_latency::8            0                       # Histogram of ACP transaction total latency
system.bfs_queue_datapath.acp_latency::9            0                       # Histogram of ACP transaction total latency
system.bfs_queue_datapath.acp_latency::10            0                       # Histogram of ACP transaction total latency
system.bfs_queue_datapath.acp_latency::11            0                       # Histogram of ACP transaction total latency
system.bfs_queue_datapath.acp_latency::12            0                       # Histogram of ACP transaction total latency
system.bfs_queue_datapath.acp_latency::13            0                       # Histogram of ACP transaction total latency
system.bfs_queue_datapath.acp_latency::14            0                       # Histogram of ACP transaction total latency
system.bfs_queue_datapath.acp_latency::15            0                       # Histogram of ACP transaction total latency
system.bfs_queue_datapath.acp_latency::16            0                       # Histogram of ACP transaction total latency
system.bfs_queue_datapath.acp_latency::17            0                       # Histogram of ACP transaction total latency
system.bfs_queue_datapath.acp_latency::18            0                       # Histogram of ACP transaction total latency
system.bfs_queue_datapath.acp_latency::19            0                       # Histogram of ACP transaction total latency
system.bfs_queue_datapath.acp_latency::20            0                       # Histogram of ACP transaction total latency
system.bfs_queue_datapath.acp_latency::21            0                       # Histogram of ACP transaction total latency
system.bfs_queue_datapath.acp_latency::22            0                       # Histogram of ACP transaction total latency
system.bfs_queue_datapath.acp_latency::23            0                       # Histogram of ACP transaction total latency
system.bfs_queue_datapath.acp_latency::24            0                       # Histogram of ACP transaction total latency
system.bfs_queue_datapath.acp_latency::25            0                       # Histogram of ACP transaction total latency
system.bfs_queue_datapath.acp_latency::26            0                       # Histogram of ACP transaction total latency
system.bfs_queue_datapath.acp_latency::27            0                       # Histogram of ACP transaction total latency
system.bfs_queue_datapath.acp_latency::28            0                       # Histogram of ACP transaction total latency
system.bfs_queue_datapath.acp_latency::29            0                       # Histogram of ACP transaction total latency
system.bfs_queue_datapath.acp_latency::total            0                       # Histogram of ACP transaction total latency
system.bfs_queue_datapath.acp_queue_time::samples            0                       # Histogram of time ACP request spent in queue
system.bfs_queue_datapath.acp_queue_time::mean          nan                       # Histogram of time ACP request spent in queue
system.bfs_queue_datapath.acp_queue_time::gmean          nan                       # Histogram of time ACP request spent in queue
system.bfs_queue_datapath.acp_queue_time::stdev          nan                       # Histogram of time ACP request spent in queue
system.bfs_queue_datapath.acp_queue_time::0            0                       # Histogram of time ACP request spent in queue
system.bfs_queue_datapath.acp_queue_time::1            0                       # Histogram of time ACP request spent in queue
system.bfs_queue_datapath.acp_queue_time::2            0                       # Histogram of time ACP request spent in queue
system.bfs_queue_datapath.acp_queue_time::3            0                       # Histogram of time ACP request spent in queue
system.bfs_queue_datapath.acp_queue_time::4            0                       # Histogram of time ACP request spent in queue
system.bfs_queue_datapath.acp_queue_time::5            0                       # Histogram of time ACP request spent in queue
system.bfs_queue_datapath.acp_queue_time::6            0                       # Histogram of time ACP request spent in queue
system.bfs_queue_datapath.acp_queue_time::7            0                       # Histogram of time ACP request spent in queue
system.bfs_queue_datapath.acp_queue_time::8            0                       # Histogram of time ACP request spent in queue
system.bfs_queue_datapath.acp_queue_time::9            0                       # Histogram of time ACP request spent in queue
system.bfs_queue_datapath.acp_queue_time::10            0                       # Histogram of time ACP request spent in queue
system.bfs_queue_datapath.acp_queue_time::11            0                       # Histogram of time ACP request spent in queue
system.bfs_queue_datapath.acp_queue_time::12            0                       # Histogram of time ACP request spent in queue
system.bfs_queue_datapath.acp_queue_time::13            0                       # Histogram of time ACP request spent in queue
system.bfs_queue_datapath.acp_queue_time::14            0                       # Histogram of time ACP request spent in queue
system.bfs_queue_datapath.acp_queue_time::15            0                       # Histogram of time ACP request spent in queue
system.bfs_queue_datapath.acp_queue_time::16            0                       # Histogram of time ACP request spent in queue
system.bfs_queue_datapath.acp_queue_time::17            0                       # Histogram of time ACP request spent in queue
system.bfs_queue_datapath.acp_queue_time::18            0                       # Histogram of time ACP request spent in queue
system.bfs_queue_datapath.acp_queue_time::19            0                       # Histogram of time ACP request spent in queue
system.bfs_queue_datapath.acp_queue_time::20            0                       # Histogram of time ACP request spent in queue
system.bfs_queue_datapath.acp_queue_time::21            0                       # Histogram of time ACP request spent in queue
system.bfs_queue_datapath.acp_queue_time::22            0                       # Histogram of time ACP request spent in queue
system.bfs_queue_datapath.acp_queue_time::23            0                       # Histogram of time ACP request spent in queue
system.bfs_queue_datapath.acp_queue_time::24            0                       # Histogram of time ACP request spent in queue
system.bfs_queue_datapath.acp_queue_time::25            0                       # Histogram of time ACP request spent in queue
system.bfs_queue_datapath.acp_queue_time::26            0                       # Histogram of time ACP request spent in queue
system.bfs_queue_datapath.acp_queue_time::27            0                       # Histogram of time ACP request spent in queue
system.bfs_queue_datapath.acp_queue_time::28            0                       # Histogram of time ACP request spent in queue
system.bfs_queue_datapath.acp_queue_time::29            0                       # Histogram of time ACP request spent in queue
system.bfs_queue_datapath.acp_queue_time::total            0                       # Histogram of time ACP request spent in queue
system.bfs_queue_datapath.dma_setup_cycles            6                       # Total number of cycles spent on setting up DMA transfers.
system.bfs_queue_datapath.sim_cycles            32488                       # Total accelerator cycles
system.bfs_queue_datapath.tlb.hits               3331                       # TLB hits
system.bfs_queue_datapath.tlb.misses              232                       # TLB misses
system.bfs_queue_datapath.tlb.reads              3563                       # TLB reads
system.bfs_queue_datapath.tlb.updates              48                       # TLB updates
system.bfs_queue_datapath.tlb.hitRate        0.934886                       # TLB hit rate
system.bfs_queue_datapath.cache.prefetcher.pwrStateResidencyTicks::UNDEFINED    162470000                       # Cumulative time (in ticks) in various power states
system.bfs_queue_datapath.cache.prefetcher.num_hwpf_issued         2836                       # number of hwpf issued
system.bfs_queue_datapath.cache.prefetcher.pfIdentified         6005                       # number of prefetch candidates identified
system.bfs_queue_datapath.cache.prefetcher.pfBufferHit         2794                       # number of redundant prefetches already in prefetch queue
system.bfs_queue_datapath.cache.prefetcher.pfInCache            0                       # number of redundant prefetches already in cache/mshr dropped
system.bfs_queue_datapath.cache.prefetcher.pfRemovedFull            0                       # number of prefetches dropped due to prefetch queue size
system.bfs_queue_datapath.cache.prefetcher.pfSpanPage          699                       # number of prefetches not generated due to page crossing
system.bfs_queue_datapath.cache.tags.pwrStateResidencyTicks::UNDEFINED    162470000                       # Cumulative time (in ticks) in various power states
system.bfs_queue_datapath.cache.tags.tagsinuse   420.752878                       # Cycle average of tags in use
system.bfs_queue_datapath.cache.tags.total_refs         3984                       # Total number of references to valid blocks.
system.bfs_queue_datapath.cache.tags.sampled_refs         1614                       # Sample count of references to valid blocks.
system.bfs_queue_datapath.cache.tags.avg_refs     2.468401                       # Average number of references to valid blocks.
system.bfs_queue_datapath.cache.tags.warmup_cycle       300000                       # Cycle when the warmup percentage was hit.
system.bfs_queue_datapath.cache.tags.occ_blocks::.bfs_queue_datapath.system.bfs_queue_datapath.cache   202.555427                       # Average occupied blocks per requestor
system.bfs_queue_datapath.cache.tags.occ_blocks::.bfs_queue_datapath.cache.prefetcher   218.197451                       # Average occupied blocks per requestor
system.bfs_queue_datapath.cache.tags.occ_percent::.bfs_queue_datapath.system.bfs_queue_datapath.cache     0.395616                       # Average percentage of cache occupancy
system.bfs_queue_datapath.cache.tags.occ_percent::.bfs_queue_datapath.cache.prefetcher     0.426167                       # Average percentage of cache occupancy
system.bfs_queue_datapath.cache.tags.occ_percent::total     0.821783                       # Average percentage of cache occupancy
system.bfs_queue_datapath.cache.tags.occ_task_id_blocks::1022          155                       # Occupied blocks per task id
system.bfs_queue_datapath.cache.tags.occ_task_id_blocks::1024          357                       # Occupied blocks per task id
system.bfs_queue_datapath.cache.tags.age_task_id_blocks_1022::1          123                       # Occupied blocks per task id
system.bfs_queue_datapath.cache.tags.age_task_id_blocks_1022::2           32                       # Occupied blocks per task id
system.bfs_queue_datapath.cache.tags.age_task_id_blocks_1024::0           18                       # Occupied blocks per task id
system.bfs_queue_datapath.cache.tags.age_task_id_blocks_1024::1          318                       # Occupied blocks per task id
system.bfs_queue_datapath.cache.tags.age_task_id_blocks_1024::2           21                       # Occupied blocks per task id
system.bfs_queue_datapath.cache.tags.occ_task_id_percent::1022     0.302734                       # Percentage of cache occupancy per task id
system.bfs_queue_datapath.cache.tags.occ_task_id_percent::1024     0.697266                       # Percentage of cache occupancy per task id
system.bfs_queue_datapath.cache.tags.tag_accesses        14938                       # Number of tag accesses
system.bfs_queue_datapath.cache.tags.data_accesses        14938                       # Number of data accesses
system.bfs_queue_datapath.cache.pwrStateResidencyTicks::UNDEFINED    162470000                       # Cumulative time (in ticks) in various power states
system.bfs_queue_datapath.cache.ReadReq_hits::.bfs_queue_datapath.system.bfs_queue_datapath.cache         1908                       # number of ReadReq hits
system.bfs_queue_datapath.cache.ReadReq_hits::total         1908                       # number of ReadReq hits
system.bfs_queue_datapath.cache.WriteReq_hits::.bfs_queue_datapath.system.bfs_queue_datapath.cache          462                       # number of WriteReq hits
system.bfs_queue_datapath.cache.WriteReq_hits::total          462                       # number of WriteReq hits
system.bfs_queue_datapath.cache.demand_hits::.bfs_queue_datapath.system.bfs_queue_datapath.cache         2370                       # number of demand (read+write) hits
system.bfs_queue_datapath.cache.demand_hits::total         2370                       # number of demand (read+write) hits
system.bfs_queue_datapath.cache.overall_hits::.bfs_queue_datapath.system.bfs_queue_datapath.cache         2370                       # number of overall hits
system.bfs_queue_datapath.cache.overall_hits::total         2370                       # number of overall hits
system.bfs_queue_datapath.cache.ReadReq_misses::.bfs_queue_datapath.system.bfs_queue_datapath.cache          949                       # number of ReadReq misses
system.bfs_queue_datapath.cache.ReadReq_misses::total          949                       # number of ReadReq misses
system.bfs_queue_datapath.cache.WriteReq_misses::.bfs_queue_datapath.system.bfs_queue_datapath.cache           12                       # number of WriteReq misses
system.bfs_queue_datapath.cache.WriteReq_misses::total           12                       # number of WriteReq misses
system.bfs_queue_datapath.cache.demand_misses::.bfs_queue_datapath.system.bfs_queue_datapath.cache          961                       # number of demand (read+write) misses
system.bfs_queue_datapath.cache.demand_misses::total          961                       # number of demand (read+write) misses
system.bfs_queue_datapath.cache.overall_misses::.bfs_queue_datapath.system.bfs_queue_datapath.cache          961                       # number of overall misses
system.bfs_queue_datapath.cache.overall_misses::total          961                       # number of overall misses
system.bfs_queue_datapath.cache.ReadReq_miss_latency::.bfs_queue_datapath.system.bfs_queue_datapath.cache    139269995                       # number of ReadReq miss cycles
system.bfs_queue_datapath.cache.ReadReq_miss_latency::total    139269995                       # number of ReadReq miss cycles
system.bfs_queue_datapath.cache.WriteReq_miss_latency::.bfs_queue_datapath.system.bfs_queue_datapath.cache      1260000                       # number of WriteReq miss cycles
system.bfs_queue_datapath.cache.WriteReq_miss_latency::total      1260000                       # number of WriteReq miss cycles
system.bfs_queue_datapath.cache.demand_miss_latency::.bfs_queue_datapath.system.bfs_queue_datapath.cache    140529995                       # number of demand (read+write) miss cycles
system.bfs_queue_datapath.cache.demand_miss_latency::total    140529995                       # number of demand (read+write) miss cycles
system.bfs_queue_datapath.cache.overall_miss_latency::.bfs_queue_datapath.system.bfs_queue_datapath.cache    140529995                       # number of overall miss cycles
system.bfs_queue_datapath.cache.overall_miss_latency::total    140529995                       # number of overall miss cycles
system.bfs_queue_datapath.cache.ReadReq_accesses::.bfs_queue_datapath.system.bfs_queue_datapath.cache         2857                       # number of ReadReq accesses(hits+misses)
system.bfs_queue_datapath.cache.ReadReq_accesses::total         2857                       # number of ReadReq accesses(hits+misses)
system.bfs_queue_datapath.cache.WriteReq_accesses::.bfs_queue_datapath.system.bfs_queue_datapath.cache          474                       # number of WriteReq accesses(hits+misses)
system.bfs_queue_datapath.cache.WriteReq_accesses::total          474                       # number of WriteReq accesses(hits+misses)
system.bfs_queue_datapath.cache.demand_accesses::.bfs_queue_datapath.system.bfs_queue_datapath.cache         3331                       # number of demand (read+write) accesses
system.bfs_queue_datapath.cache.demand_accesses::total         3331                       # number of demand (read+write) accesses
system.bfs_queue_datapath.cache.overall_accesses::.bfs_queue_datapath.system.bfs_queue_datapath.cache         3331                       # number of overall (read+write) accesses
system.bfs_queue_datapath.cache.overall_accesses::total         3331                       # number of overall (read+write) accesses
system.bfs_queue_datapath.cache.ReadReq_miss_rate::.bfs_queue_datapath.system.bfs_queue_datapath.cache     0.332167                       # miss rate for ReadReq accesses
system.bfs_queue_datapath.cache.ReadReq_miss_rate::total     0.332167                       # miss rate for ReadReq accesses
system.bfs_queue_datapath.cache.WriteReq_miss_rate::.bfs_queue_datapath.system.bfs_queue_datapath.cache     0.025316                       # miss rate for WriteReq accesses
system.bfs_queue_datapath.cache.WriteReq_miss_rate::total     0.025316                       # miss rate for WriteReq accesses
system.bfs_queue_datapath.cache.demand_miss_rate::.bfs_queue_datapath.system.bfs_queue_datapath.cache     0.288502                       # miss rate for demand accesses
system.bfs_queue_datapath.cache.demand_miss_rate::total     0.288502                       # miss rate for demand accesses
system.bfs_queue_datapath.cache.overall_miss_rate::.bfs_queue_datapath.system.bfs_queue_datapath.cache     0.288502                       # miss rate for overall accesses
system.bfs_queue_datapath.cache.overall_miss_rate::total     0.288502                       # miss rate for overall accesses
system.bfs_queue_datapath.cache.ReadReq_avg_miss_latency::.bfs_queue_datapath.system.bfs_queue_datapath.cache 146754.473130                       # average ReadReq miss latency
system.bfs_queue_datapath.cache.ReadReq_avg_miss_latency::total 146754.473130                       # average ReadReq miss latency
system.bfs_queue_datapath.cache.WriteReq_avg_miss_latency::.bfs_queue_datapath.system.bfs_queue_datapath.cache       105000                       # average WriteReq miss latency
system.bfs_queue_datapath.cache.WriteReq_avg_miss_latency::total       105000                       # average WriteReq miss latency
system.bfs_queue_datapath.cache.demand_avg_miss_latency::.bfs_queue_datapath.system.bfs_queue_datapath.cache 146233.085328                       # average overall miss latency
system.bfs_queue_datapath.cache.demand_avg_miss_latency::total 146233.085328                       # average overall miss latency
system.bfs_queue_datapath.cache.overall_avg_miss_latency::.bfs_queue_datapath.system.bfs_queue_datapath.cache 146233.085328                       # average overall miss latency
system.bfs_queue_datapath.cache.overall_avg_miss_latency::total 146233.085328                       # average overall miss latency
system.bfs_queue_datapath.cache.blocked_cycles::no_mshrs           59                       # number of cycles access was blocked
system.bfs_queue_datapath.cache.blocked_cycles::no_targets            0                       # number of cycles access was blocked
system.bfs_queue_datapath.cache.blocked::no_mshrs           13                       # number of cycles access was blocked
system.bfs_queue_datapath.cache.blocked::no_targets            0                       # number of cycles access was blocked
system.bfs_queue_datapath.cache.avg_blocked_cycles::no_mshrs     4.538462                       # average number of cycles each access was blocked
system.bfs_queue_datapath.cache.avg_blocked_cycles::no_targets          nan                       # average number of cycles each access was blocked
system.bfs_queue_datapath.cache.unused_prefetches          499                       # number of HardPF blocks evicted w/o reference
system.bfs_queue_datapath.cache.writebacks::.writebacks            2                       # number of writebacks
system.bfs_queue_datapath.cache.writebacks::total            2                       # number of writebacks
system.bfs_queue_datapath.cache.ReadReq_mshr_hits::.bfs_queue_datapath.system.bfs_queue_datapath.cache          234                       # number of ReadReq MSHR hits
system.bfs_queue_datapath.cache.ReadReq_mshr_hits::total          234                       # number of ReadReq MSHR hits
system.bfs_queue_datapath.cache.WriteReq_mshr_hits::.bfs_queue_datapath.system.bfs_queue_datapath.cache            8                       # number of WriteReq MSHR hits
system.bfs_queue_datapath.cache.WriteReq_mshr_hits::total            8                       # number of WriteReq MSHR hits
system.bfs_queue_datapath.cache.demand_mshr_hits::.bfs_queue_datapath.system.bfs_queue_datapath.cache          242                       # number of demand (read+write) MSHR hits
system.bfs_queue_datapath.cache.demand_mshr_hits::total          242                       # number of demand (read+write) MSHR hits
system.bfs_queue_datapath.cache.overall_mshr_hits::.bfs_queue_datapath.system.bfs_queue_datapath.cache          242                       # number of overall MSHR hits
system.bfs_queue_datapath.cache.overall_mshr_hits::total          242                       # number of overall MSHR hits
system.bfs_queue_datapath.cache.ReadReq_mshr_misses::.bfs_queue_datapath.system.bfs_queue_datapath.cache          715                       # number of ReadReq MSHR misses
system.bfs_queue_datapath.cache.ReadReq_mshr_misses::total          715                       # number of ReadReq MSHR misses
system.bfs_queue_datapath.cache.WriteReq_mshr_misses::.bfs_queue_datapath.system.bfs_queue_datapath.cache            4                       # number of WriteReq MSHR misses
system.bfs_queue_datapath.cache.WriteReq_mshr_misses::total            4                       # number of WriteReq MSHR misses
system.bfs_queue_datapath.cache.HardPFReq_mshr_misses::.bfs_queue_datapath.cache.prefetcher          895                       # number of HardPFReq MSHR misses
system.bfs_queue_datapath.cache.HardPFReq_mshr_misses::total          895                       # number of HardPFReq MSHR misses
system.bfs_queue_datapath.cache.demand_mshr_misses::.bfs_queue_datapath.system.bfs_queue_datapath.cache          719                       # number of demand (read+write) MSHR misses
system.bfs_queue_datapath.cache.demand_mshr_misses::total          719                       # number of demand (read+write) MSHR misses
system.bfs_queue_datapath.cache.overall_mshr_misses::.bfs_queue_datapath.system.bfs_queue_datapath.cache          719                       # number of overall MSHR misses
system.bfs_queue_datapath.cache.overall_mshr_misses::.bfs_queue_datapath.cache.prefetcher          895                       # number of overall MSHR misses
system.bfs_queue_datapath.cache.overall_mshr_misses::total         1614                       # number of overall MSHR misses
system.bfs_queue_datapath.cache.ReadReq_mshr_miss_latency::.bfs_queue_datapath.system.bfs_queue_datapath.cache    101584995                       # number of ReadReq MSHR miss cycles
system.bfs_queue_datapath.cache.ReadReq_mshr_miss_latency::total    101584995                       # number of ReadReq MSHR miss cycles
system.bfs_queue_datapath.cache.WriteReq_mshr_miss_latency::.bfs_queue_datapath.system.bfs_queue_datapath.cache       415000                       # number of WriteReq MSHR miss cycles
system.bfs_queue_datapath.cache.WriteReq_mshr_miss_latency::total       415000                       # number of WriteReq MSHR miss cycles
system.bfs_queue_datapath.cache.HardPFReq_mshr_miss_latency::.bfs_queue_datapath.cache.prefetcher    166978130                       # number of HardPFReq MSHR miss cycles
system.bfs_queue_datapath.cache.HardPFReq_mshr_miss_latency::total    166978130                       # number of HardPFReq MSHR miss cycles
system.bfs_queue_datapath.cache.demand_mshr_miss_latency::.bfs_queue_datapath.system.bfs_queue_datapath.cache    101999995                       # number of demand (read+write) MSHR miss cycles
system.bfs_queue_datapath.cache.demand_mshr_miss_latency::total    101999995                       # number of demand (read+write) MSHR miss cycles
system.bfs_queue_datapath.cache.overall_mshr_miss_latency::.bfs_queue_datapath.system.bfs_queue_datapath.cache    101999995                       # number of overall MSHR miss cycles
system.bfs_queue_datapath.cache.overall_mshr_miss_latency::.bfs_queue_datapath.cache.prefetcher    166978130                       # number of overall MSHR miss cycles
system.bfs_queue_datapath.cache.overall_mshr_miss_latency::total    268978125                       # number of overall MSHR miss cycles
system.bfs_queue_datapath.cache.ReadReq_mshr_miss_rate::.bfs_queue_datapath.system.bfs_queue_datapath.cache     0.250263                       # mshr miss rate for ReadReq accesses
system.bfs_queue_datapath.cache.ReadReq_mshr_miss_rate::total     0.250263                       # mshr miss rate for ReadReq accesses
system.bfs_queue_datapath.cache.WriteReq_mshr_miss_rate::.bfs_queue_datapath.system.bfs_queue_datapath.cache     0.008439                       # mshr miss rate for WriteReq accesses
system.bfs_queue_datapath.cache.WriteReq_mshr_miss_rate::total     0.008439                       # mshr miss rate for WriteReq accesses
system.bfs_queue_datapath.cache.HardPFReq_mshr_miss_rate::.bfs_queue_datapath.cache.prefetcher          inf                       # mshr miss rate for HardPFReq accesses
system.bfs_queue_datapath.cache.HardPFReq_mshr_miss_rate::total          inf                       # mshr miss rate for HardPFReq accesses
system.bfs_queue_datapath.cache.demand_mshr_miss_rate::.bfs_queue_datapath.system.bfs_queue_datapath.cache     0.215851                       # mshr miss rate for demand accesses
system.bfs_queue_datapath.cache.demand_mshr_miss_rate::total     0.215851                       # mshr miss rate for demand accesses
system.bfs_queue_datapath.cache.overall_mshr_miss_rate::.bfs_queue_datapath.system.bfs_queue_datapath.cache     0.215851                       # mshr miss rate for overall accesses
system.bfs_queue_datapath.cache.overall_mshr_miss_rate::.bfs_queue_datapath.cache.prefetcher          inf                       # mshr miss rate for overall accesses
system.bfs_queue_datapath.cache.overall_mshr_miss_rate::total     0.484539                       # mshr miss rate for overall accesses
system.bfs_queue_datapath.cache.ReadReq_avg_mshr_miss_latency::.bfs_queue_datapath.system.bfs_queue_datapath.cache 142076.916084                       # average ReadReq mshr miss latency
system.bfs_queue_datapath.cache.ReadReq_avg_mshr_miss_latency::total 142076.916084                       # average ReadReq mshr miss latency
system.bfs_queue_datapath.cache.WriteReq_avg_mshr_miss_latency::.bfs_queue_datapath.system.bfs_queue_datapath.cache       103750                       # average WriteReq mshr miss latency
system.bfs_queue_datapath.cache.WriteReq_avg_mshr_miss_latency::total       103750                       # average WriteReq mshr miss latency
system.bfs_queue_datapath.cache.HardPFReq_avg_mshr_miss_latency::.bfs_queue_datapath.cache.prefetcher 186567.743017                       # average HardPFReq mshr miss latency
system.bfs_queue_datapath.cache.HardPFReq_avg_mshr_miss_latency::total 186567.743017                       # average HardPFReq mshr miss latency
system.bfs_queue_datapath.cache.demand_avg_mshr_miss_latency::.bfs_queue_datapath.system.bfs_queue_datapath.cache 141863.692629                       # average overall mshr miss latency
system.bfs_queue_datapath.cache.demand_avg_mshr_miss_latency::total 141863.692629                       # average overall mshr miss latency
system.bfs_queue_datapath.cache.overall_avg_mshr_miss_latency::.bfs_queue_datapath.system.bfs_queue_datapath.cache 141863.692629                       # average overall mshr miss latency
system.bfs_queue_datapath.cache.overall_avg_mshr_miss_latency::.bfs_queue_datapath.cache.prefetcher 186567.743017                       # average overall mshr miss latency
system.bfs_queue_datapath.cache.overall_avg_mshr_miss_latency::total 166653.113383                       # average overall mshr miss latency
system.bfs_queue_datapath.cache.replacements         1102                       # number of replacements
system.cpu_clk_domain.clock                       500                       # Clock period in ticks
system.membus.snoop_filter.tot_requests          2716                       # Total number of requests made to the snoop filter.
system.membus.snoop_filter.hit_single_requests         1102                       # Number of requests hitting in the snoop filter with a single holder of the requested data.
system.membus.snoop_filter.hit_multi_requests            0                       # Number of requests hitting in the snoop filter with multiple (>1) holders of the requested data.
system.membus.snoop_filter.tot_snoops               0                       # Total number of snoops made to the snoop filter.
system.membus.snoop_filter.hit_single_snoops            0                       # Number of snoops hitting in the snoop filter with a single holder of the requested data.
system.membus.snoop_filter.hit_multi_snoops            0                       # Number of snoops hitting in the snoop filter with multiple (>1) holders of the requested data.
system.membus.pwrStateResidencyTicks::UNDEFINED    162470000                       # Cumulative time (in ticks) in various power states
system.membus.trans_dist::ReadResp               1609                       # Transaction distribution
system.membus.trans_dist::WritebackDirty            2                       # Transaction distribution
system.membus.trans_dist::CleanEvict             1100                       # Transaction distribution
system.membus.trans_dist::ReadExReq                 4                       # Transaction distribution
system.membus.trans_dist::ReadExResp                4                       # Transaction distribution
system.membus.trans_dist::ReadSharedReq          1609                       # Transaction distribution
system.membus.trans_dist::InvalidateReq             1                       # Transaction distribution
system.membus.pkt_count_system.bfs_queue_datapath.cache.mem_side::system.mem_ctrls.port         4329                       # Packet count per connected master and slave (bytes)
system.membus.pkt_count::total                   4329                       # Packet count per connected master and slave (bytes)
system.membus.pkt_size_system.bfs_queue_datapath.cache.mem_side::system.mem_ctrls.port        51680                       # Cumulative packet size per connected master and slave (bytes)
system.membus.pkt_size::total                   51680                       # Cumulative packet size per connected master and slave (bytes)
system.membus.snoops                                0                       # Total snoops (count)
system.membus.snoopTraffic                          0                       # Total snoop traffic (bytes)
system.membus.snoop_fanout::samples              1614                       # Request fanout histogram
system.membus.snoop_fanout::mean                    0                       # Request fanout histogram
system.membus.snoop_fanout::stdev                   0                       # Request fanout histogram
system.membus.snoop_fanout::underflows              0      0.00%      0.00% # Request fanout histogram
system.membus.snoop_fanout::0                    1614    100.00%    100.00% # Request fanout histogram
system.membus.snoop_fanout::1                       0      0.00%    100.00% # Request fanout histogram
system.membus.snoop_fanout::2                       0      0.00%    100.00% # Request fanout histogram
system.membus.snoop_fanout::overflows               0      0.00%    100.00% # Request fanout histogram
system.membus.snoop_fanout::min_value               0                       # Request fanout histogram
system.membus.snoop_fanout::max_value               0                       # Request fanout histogram
system.membus.snoop_fanout::total                1614                       # Request fanout histogram
system.membus.reqLayer0.occupancy            15178899                       # Layer occupancy (ticks)
system.membus.reqLayer0.utilization               9.3                       # Layer utilization (%)
system.membus.respLayer1.occupancy           24425507                       # Layer occupancy (ticks)
system.membus.respLayer1.utilization             15.0                       # Layer utilization (%)

---------- End Simulation Statistics   ----------
