gem5 Simulator System.  http://gem5.org
gem5 is copyrighted software; use the --copyright option for details.

gem5 compiled Jun  2 2019 14:47:48
gem5 started Jun 14 2019 23:12:06
gem5 executing on 495254723dfb, pid 324
command line: /workspace/gem5-aladdin/build/X86/gem5.opt --stats-db-file=stats.db --outdir=/workspace/gem5-aladdin/sweeps/machsuite/bfs_queue/0/outputs /workspace/gem5-aladdin/configs/aladdin/aladdin_se.py --num-cpus=0 --mem-size=4GB --enable-stats-dump --enable_prefetchers --prefetcher-type=stride --mem-type=DDR3_1600_8x8 --sys-clock=499MHz --cpu-type=DerivO3CPU --caches --cacheline_size=32 --accel_cfg_file=/workspace/gem5-aladdin/sweeps/machsuite/bfs_queue/0/gem5.cfg -c bfs-queue-gem5-accel -o ''

Global frequency set at 1000000000000 ticks per second
-------------------------------
      Setting ScratchPad       
-------------------------------
-------------------------------
      Generating DDDG          
-------------------------------
-------------------------------
Num of Nodes: 58534
Num of Edges: 127575
Num of Reg Edges: 64481
Num of MEM Edges: 4561
Num of Control Edges: 58533
-------------------------------
-------------------------------
    Initializing BaseDatapath      
-------------------------------
 Top level: bfs
=============================================
      Optimizing...            /workspace/gem5-aladdin/sweeps/machsuite/bfs_queue/0/outputs/bfs_queue
=============================================
-------------------------------
  Remove PHI and Convert Nodes 
-------------------------------
  Removing 38169 edges.
  Adding 33115 new edges.
  Removing 8425 isolated nodes.
-------------------------------
  Remove Induction Dependence  
-------------------------------
-------------------------------
       Init Base Address       
-------------------------------
-------------------------------
     Init DMA Base Address     
-------------------------------
-------------------------------
        Mem to Reg Conv        
-------------------------------
-------------------------------
      ScratchPad Partition     
-------------------------------
-------------------------------
         Loop Flatten          
-------------------------------
  Removing 0 isolated nodes.
  Removing 0 isolated nodes.
-------------------------------
         Loop Unrolling        
-------------------------------
  Adding 85563 new edges.
  Removing 0 isolated nodes.
  Removing 0 isolated nodes.
-------------------------------
          Load Buffer          
-------------------------------
  Adding 0 new edges.
  Removing 0 edges.
  Removing 0 isolated nodes.
-------------------------------
          Store Buffer         
-------------------------------
  Adding 0 new edges.
  Removing 0 isolated nodes.
  Removing 0 isolated nodes.
-------------------------------
    Remove Repeated Stores     
-------------------------------
-------------------------------
      Memory Ambiguation       
-------------------------------
  Adding 462 new edges.
-------------------------------
     Tree Height Reduction     
-------------------------------
  Removing 0 edges.
  Adding 0 new edges.
  Removing 0 isolated nodes.
-------------------------------
  Fuse register loads/stores   
-------------------------------
  Removing 0 edges.
  Adding 0 new edges.
  Removing 0 isolated nodes.
-------------------------------
   Fuse consecutive branches   
-------------------------------
  Removing 0 edges.
  Adding 0 new edges.
  Removing 0 isolated nodes.
-------------------------------
      Per Loop Pipelining      
-------------------------------
-------------------------------
         Loop Pipelining        
-------------------------------
=============================================
      Scheduling...            /workspace/gem5-aladdin/sweeps/machsuite/bfs_queue/0/outputs/bfs_queue
=============================================
  Total connected nodes: 45068
  Total edges: 181864
=============================================
**** REAL SIMULATION ****
===============================
        Aladdin Results        
===============================
Running : /workspace/gem5-aladdin/sweeps/machsuite/bfs_queue/0/outputs/bfs_queue
Top level function: bfs
Cycle : 222645 cycles
Avg Power: 8.20939 mW
Idle FU Cycles: 217852 cycles
Avg FU Power: 0.0431371 mW
Avg FU Dynamic Power: 0.0164515 mW
Avg FU leakage Power: 0.0266856 mW
Avg MEM Power: 8.16625 mW
Avg MEM Dynamic Power: 2.98752 mW
Avg MEM Leakage Power: 5.17872 mW
Total Area: 1.15336e+06 uM^2
FU Area: 2119.95 uM^2
MEM Area: 1.15124e+06 uM^2
Num of Adders (32-bit): 3
Num of Bit-wise Operators (32-bit): 1
Num of Registers (32-bit): 8
===============================
        Aladdin Results        
===============================
-------------------------------
      Generating DDDG          
-------------------------------
-------------------------------
Reached end of trace.
-------------------------------
Exiting @ tick 445290000 because Aladdin called exit()
